
-------------------------------------------------------------------------
|    ___ _   _ ___                                                      |
|   / __| | | |_  )   Release 8.3.0 "Harrier"                           |
|   \__ \ |_| |/ /                                                      |
|   |___/\___//___|   Suite (Computational Fluid Dynamics Code)         |
|                                                                       |
-------------------------------------------------------------------------
| SU2 Project Website: https://su2code.github.io                        |
|                                                                       |
| The SU2 Project is maintained by the SU2 Foundation                   |
| (http://su2foundation.org)                                            |
-------------------------------------------------------------------------
| Copyright 2012-2025, SU2 Contributors                                 |
|                                                                       |
| SU2 is free software; you can redistribute it and/or                  |
| modify it under the terms of the GNU Lesser General Public            |
| License as published by the Free Software Foundation; either          |
| version 2.1 of the License, or (at your option) any later version.    |
|                                                                       |
| SU2 is distributed in the hope that it will be useful,                |
| but WITHOUT ANY WARRANTY; without even the implied warranty of        |
| MERCHANTABILITY or FITNESS FOR A PARTICULAR PURPOSE. See the GNU      |
| Lesser General Public License for more details.                       |
|                                                                       |
| You should have received a copy of the GNU Lesser General Public      |
| License along with SU2. If not, see <http://www.gnu.org/licenses/>.   |
-------------------------------------------------------------------------

Parsing config file for zone 0

----------------- Physical Case Definition ( Zone 0 ) -------------------
Compressible Euler equations.
Mach number: 0.3.
Angle of attack (AoA): 0 deg, and angle of sideslip (AoS): 0 deg.
No restart solution, use the values at infinity (freestream).
Dimensional simulation.
The reference area is 0.0833333 ft^2.
The semi-span will be computed using the max y(3D) value.
The reference length is 0.0833333 ft.
Reference origin for moment evaluation is (0, 0, 0).
Surface(s) where the force coefficients are evaluated: Airfoils.

Surface(s) plotted in the output file: Airfoils.
Input mesh file name: swirler_n1_c2_AoA5_NACA8412.su2

--------------- Space Numerical Integration ( Zone 0 ) ------------------
Jameson-Schmidt-Turkel scheme (2nd order in space) for the flow inviscid terms.
JST viscous coefficients (2nd & 4th): 0.5, 0.08.
The method includes a grid stretching correction (p = 0.3).
Gradient for viscous and source terms: inverse-distance weighted Least-Squares.

--------------- Time Numerical Integration  ( Zone 0 ) ------------------
Local time stepping (steady state simulation).
Euler implicit method for the flow equations.
FGMRES is used for solving the linear system.
Using a ILU(0) preconditioning.
Convergence criteria of the linear solver: -10.
Max number of linear iterations: 10.
CFL adaptation. Factor down: 0.5, factor up: 1.2,
                lower limit: 0.05, upper limit: 3,
                acceptable linear residual: 0.001'
                starting iteration: 0.
Courant-Friedrichs-Lewy number:      0.1

------------------ Convergence Criteria  ( Zone 0 ) ---------------------
Maximum number of solver subiterations: 500.
Begin convergence monitoring at iteration 10.
Residual minimum value: 1e-8.
Cauchy series min. value: 1e-06.
Number of Cauchy elements: 100.
Begin windowed time average at iteration 0.

-------------------- Output Information ( Zone 0 ) ----------------------
File writing frequency: 
+------------------------------------+
|                     File| Frequency|
+------------------------------------+
|                  RESTART|       100|
|                 PARAVIEW|       100|
|              SURFACE_CSV|       100|
+------------------------------------+
Writing the convergence history file every 1 inner iterations.
Writing the screen convergence history every 1 inner iterations.
The tabular file format is CSV (.csv).
Convergence history file name: history.
Forces breakdown file name: forces_breakdown.dat.
Surface file name: surface_flow.
Volume file name: flow.
Restart file name: restart_flow.

------------- Config File Boundary Information ( Zone 0 ) ---------------
+-----------------------------------------------------------------------+
|                        Marker Type|                        Marker Name|
+-----------------------------------------------------------------------+
|                         Euler wall|                           Airfoils|
|                                   |                          Symmetry1|
|                                   |                          Symmetry2|
+-----------------------------------------------------------------------+
|                     Inlet boundary|                              Inlet|
+-----------------------------------------------------------------------+
|                    Outlet boundary|                             Outlet|
+-----------------------------------------------------------------------+

-------------------- Output Preprocessing ( Zone 0 ) --------------------

WARNING: SURFACE_PRESSURE_DROP can only be computed for at least 2 surfaces (outlet, inlet, ...)

Screen output fields: INNER_ITER, RMS_DENSITY, RMS_MOMENTUM-X, RMS_MOMENTUM-Y, RMS_ENERGY
History output group(s): ITER, RMS_RES
Convergence field(s): RMS_DENSITY
Warning: No (valid) fields chosen for time convergence monitoring. Time convergence monitoring inactive.
Volume output fields: COORDINATES, SOLUTION, PRIMITIVE

------------------- Geometry Preprocessing ( Zone 0 ) -------------------
Two dimensional problem.
54614 grid points.
107944 volume elements.
5 surface markers.
198 boundary elements in index 0 (Marker = Airfoils).
63 boundary elements in index 1 (Marker = Inlet).
480 boundary elements in index 2 (Marker = Symmetry1).
480 boundary elements in index 3 (Marker = Symmetry2).
63 boundary elements in index 4 (Marker = Outlet).
107944 triangles.
Setting point connectivity.
Renumbering points (Reverse Cuthill McKee Ordering).
Recomputing point connectivity.
Setting element connectivity.
Checking the numerical grid orientation.
All volume elements are correctly oriented.
All surface elements are correctly oriented.
Identifying edges and vertices.
Setting the control volume structure.
Area of the computational grid: 2.09382.
Searching for the closest normal neighbors to the surfaces.
Storing a mapping from global to local point index.
Compute the surface curvature.
Max K: 90341.4. Mean K: 78.9868. Standard deviation K: 2516.77.
Checking for periodicity.
Computing mesh quality statistics for the dual control volumes.
+--------------------------------------------------------------+
|           Mesh Quality Metric|        Minimum|        Maximum|
+--------------------------------------------------------------+
|    Orthogonality Angle (deg.)|        73.6013|             90|
|     CV Face Area Aspect Ratio|              1|        9.76506|
|           CV Sub-Volume Ratio|              1|        5.43884|
+--------------------------------------------------------------+
Finding max control volume width.
Wetted area = 0.172723 ft.
Area projection in the x-plane = 0.0156705 ft, y-plane = 0.0831348 ft.
Max. coordinate in the x-direction = 1.58302 ft, y-direction = 0.276312 ft.
Min. coordinate in the x-direction = 1.49987 ft, y-direction = 0.260819 ft.
Computing wall distances.

-------------------- Solver Preprocessing ( Zone 0 ) --------------------
Inviscid flow: Computing density based on free-stream
temperature and pressure using the ideal gas law.
Force coefficients computed using free-stream values.

-- Models:
+------------------------------------------------------------------------------+
|          Viscosity Model|        Conductivity Model|              Fluid Model|
+------------------------------------------------------------------------------+
|                        -|                         -|             STANDARD_AIR|
+------------------------------------------------------------------------------+
-- Fluid properties:
+------------------------------------------------------------------------------+
|                  Name|    Dim. value|    Ref. value|      Unit|Non-dim. value|
+------------------------------------------------------------------------------+
|          Gas Constant|       1716.49|             1|lbf.ft/slug.R|       1716.49|
|      Spec. Heat Ratio|             -|             -|         -|           1.4|
+------------------------------------------------------------------------------+
-- Initial and free-stream conditions:
+------------------------------------------------------------------------------+
|                  Name|    Dim. value|    Ref. value|      Unit|Non-dim. value|
+------------------------------------------------------------------------------+
|       Static Pressure|       2116.22|             1|       psf|       2116.22|
|               Density|   0.000742695|             1| slug/ft^3|   0.000742695|
|           Temperature|          1660|             1|         R|          1660|
|          Total Energy|   7.30294e+06|             1|  ft^2/s^2|   7.30294e+06|
|            Velocity-X|       599.184|             1|      ft/s|       599.184|
|            Velocity-Y|             0|             1|      ft/s|             0|
|    Velocity Magnitude|       599.184|             1|      ft/s|       599.184|
+------------------------------------------------------------------------------+
|           Mach Number|             -|             -|         -|           0.3|
+------------------------------------------------------------------------------+
Initialize Jacobian structure (Euler). MG level: 0.

------------------- Numerics Preprocessing ( Zone 0 ) -------------------

----------------- Integration Preprocessing ( Zone 0 ) ------------------

------------------- Iteration Preprocessing ( Zone 0 ) ------------------
Euler/Navier-Stokes/RANS fluid iteration.

------------------------------ Begin Solver -----------------------------

Simulation Run using the Single-zone Driver
WARNING: SU2 was not compiled for an AVX-capable architecture. Performance could be better,
         see https://su2code.github.io/docs_v7/Build-SU2-Linux-MacOS/#compiler-optimizations
+----------------------------------------------------------------+
|  Inner_Iter|    rms[Rho]|   rms[RhoU]|   rms[RhoV]|   rms[RhoE]|
+----------------------------------------------------------------+
|           0|   -5.251292|   -2.298847|   -2.952009|    1.764920|
|           1|   -5.386447|   -2.331473|   -2.501606|    1.637863|
|           2|   -5.389796|   -2.343286|   -2.499854|    1.633620|
|           3|   -5.393652|   -2.356695|   -2.496617|    1.628838|
|           4|   -5.398091|   -2.371726|   -2.491362|    1.623463|
|           5|   -5.403208|   -2.388293|   -2.483490|    1.617423|
|           6|   -5.409127|   -2.406125|   -2.472405|    1.610620|
|           7|   -5.416013|   -2.424666|   -2.457598|    1.602917|
|           8|   -5.424085|   -2.442943|   -2.438765|    1.594126|
|           9|   -5.433628|   -2.459453|   -2.415914|    1.583995|
|          10|   -5.445002|   -2.472154|   -2.389431|    1.572201|
|          11|   -5.458634|   -2.478750|   -2.360083|    1.558359|
|          12|   -5.474988|   -2.477404|   -2.328996|    1.542052|
|          13|   -5.494465|   -2.467675|   -2.297572|    1.522930|
|          14|   -5.517190|   -2.451081|   -2.267425|    1.500906|
|          15|   -5.542592|   -2.430905|   -2.240352|    1.476561|
|          16|   -5.568688|   -2.411422|   -2.218351|    1.451810|
|          17|   -5.591309|   -2.397074|   -2.203639|    1.430604|
|          18|   -5.604286|   -2.392014|   -2.198695|    1.418730|
|          19|   -5.602404|   -2.399745|   -2.206239|    1.421036|
|          20|   -5.586476|   -2.422269|   -2.228518|    1.436393|
|          21|   -5.565140|   -2.455599|   -2.263710|    1.456298|
|          22|   -5.547311|   -2.490322|   -2.306802|    1.472598|
|          23|   -5.538105|   -2.515489|   -2.349869|    1.480381|
|          24|   -5.539537|   -2.523773|   -2.382628|    1.477593|
|          25|   -5.551502|   -2.516470|   -2.397075|    1.464269|
|          26|   -5.572247|   -2.501369|   -2.393461|    1.442152|
|          27|   -5.598397|   -2.486460|   -2.379611|    1.414713|
|          28|   -5.625045|   -2.476662|   -2.364512|    1.387053|
|          29|   -5.646576|   -2.473868|   -2.354205|    1.364979|
|          30|   -5.658753|   -2.477928|   -2.351542|    1.352742|
|          31|   -5.660842|   -2.487451|   -2.357193|    1.350862|
|          32|   -5.655744|   -2.500282|   -2.370414|    1.356151|
|          33|   -5.647920|   -2.513899|   -2.389375|    1.363997|
|          34|   -5.641220|   -2.525931|   -2.411337|    1.370550|
|          35|   -5.638003|   -2.534712|   -2.432887|    1.373528|
|          36|   -5.639152|   -2.539687|   -2.450602|    1.372137|
|          37|   -5.644421|   -2.541415|   -2.462148|    1.366688|
|          38|   -5.652758|   -2.541141|   -2.467189|    1.358256|
|          39|   -5.662617|   -2.540235|   -2.467339|    1.348378|
|          40|   -5.672290|   -2.539780|   -2.465202|    1.338724|
|          41|   -5.680316|   -2.540389|   -2.463276|    1.330703|
|          42|   -5.685839|   -2.542202|   -2.463301|    1.325123|
|          43|   -5.688789|   -2.544984|   -2.466102|    1.322031|
|          44|   -5.689775|   -2.548269|   -2.471683|    1.320819|
|          45|   -5.689765|   -2.551524|   -2.479420|    1.320537|
|          46|   -5.689724|   -2.554295|   -2.488283|    1.320245|
|          47|   -5.690356|   -2.556314|   -2.497096|    1.319258|
|          48|   -5.691991|   -2.557548|   -2.504819|    1.317263|
|          49|   -5.694584|   -2.558156|   -2.510794|    1.314318|
|          50|   -5.697803|   -2.558412|   -2.514878|    1.310769|
|          51|   -5.701153|   -2.558598|   -2.517404|    1.307119|
|          52|   -5.704130|   -2.558922|   -2.518994|    1.303881|
|          53|   -5.706353|   -2.559482|   -2.520319|    1.301439|
|          54|   -5.707650|   -2.560264|   -2.521916|    1.299964|
|          55|   -5.708070|   -2.561178|   -2.524078|    1.299397|
|          56|   -5.707839|   -2.562102|   -2.526845|    1.299504|
|          57|   -5.707266|   -2.562934|   -2.530045|    1.299964|
|          58|   -5.706654|   -2.563621|   -2.533381|    1.300464|
|          59|   -5.706234|   -2.564171|   -2.536533|    1.300768|
|          60|   -5.706127|   -2.564639|   -2.539244|    1.300747|
|          61|   -5.706353|   -2.565107|   -2.541377|    1.300376|
|          62|   -5.706849|   -2.565652|   -2.542934|    1.299715|
|          63|   -5.707505|   -2.566329|   -2.544036|    1.298869|
|          64|   -5.708201|   -2.567156|   -2.544868|    1.297956|
|          65|   -5.708836|   -2.568114|   -2.545626|    1.297081|
|          66|   -5.709341|   -2.569155|   -2.546469|    1.296314|
|          67|   -5.709690|   -2.570212|   -2.547490|    1.295691|
|          68|   -5.709886|   -2.571219|   -2.548710|    1.295220|
|          69|   -5.709952|   -2.572119|   -2.550087|    1.294891|
|          70|   -5.709914|   -2.572871|   -2.551537|    1.294687|
|          71|   -5.709793|   -2.573450|   -2.552961|    1.294599|
|          72|   -5.709595|   -2.573853|   -2.554270|    1.294628|
|          73|   -5.709317|   -2.574086|   -2.555398|    1.294780|
|          74|   -5.708946|   -2.574165|   -2.556317|    1.295069|
|          75|   -5.708467|   -2.574108|   -2.557027|    1.295503|
|          76|   -5.707873|   -2.573935|   -2.557557|    1.296083|
|          77|   -5.707168|   -2.573667|   -2.557944|    1.296796|
|          78|   -5.706366|   -2.573320|   -2.558231|    1.297617|
|          79|   -5.705494|   -2.572912|   -2.558450|    1.298510|
|          80|   -5.704586|   -2.572459|   -2.558623|    1.299431|
|          81|   -5.703675|   -2.571977|   -2.558763|    1.300341|
|          82|   -5.702793|   -2.571479|   -2.558872|    1.301204|
|          83|   -5.701960|   -2.570974|   -2.558948|    1.301997|
|          84|   -5.701190|   -2.570467|   -2.558990|    1.302706|
|          85|   -5.700481|   -2.569956|   -2.558997|    1.303333|
|          86|   -5.699827|   -2.569435|   -2.558972|    1.303890|
|          87|   -5.699211|   -2.568892|   -2.558918|    1.304394|
|          88|   -5.698617|   -2.568310|   -2.558837|    1.304867|
|          89|   -5.698026|   -2.567672|   -2.558728|    1.305333|
|          90|   -5.697422|   -2.566962|   -2.558587|    1.305812|
|          91|   -5.696793|   -2.566167|   -2.558406|    1.306317|
|          92|   -5.696134|   -2.565278|   -2.558171|    1.306860|
|          93|   -5.695443|   -2.564293|   -2.557869|    1.307443|
|          94|   -5.694721|   -2.563216|   -2.557487|    1.308066|
|          95|   -5.693977|   -2.562053|   -2.557014|    1.308724|
|          96|   -5.693217|   -2.560819|   -2.556447|    1.309406|
|          97|   -5.692451|   -2.559527|   -2.555788|    1.310102|
|          98|   -5.691690|   -2.558192|   -2.555045|    1.310802|
|          99|   -5.690939|   -2.556829|   -2.554233|    1.311495|
|         100|   -5.690206|   -2.555451|   -2.553370|    1.312173|
+-----------------------------------------------------------------------+
|        File Writing Summary       |              Filename             |
+-----------------------------------------------------------------------+
|SU2 binary restart                 |restart_flow.dat                   |
|Paraview                           |flow.vtu                           |
|CSV file                           |surface_flow.csv                   |
+-----------------------------------------------------------------------+
+----------------------------------------------------------------+
|  Inner_Iter|    rms[Rho]|   rms[RhoU]|   rms[RhoV]|   rms[RhoE]|
+----------------------------------------------------------------+
|         101|   -5.689494|   -2.554070|   -2.552477|    1.312830|
|         102|   -5.688802|   -2.552694|   -2.551577|    1.313466|
|         103|   -5.688127|   -2.551329|   -2.550691|    1.314081|
|         104|   -5.687463|   -2.549978|   -2.549841|    1.314683|
|         105|   -5.686798|   -2.548646|   -2.549046|    1.315281|
|         106|   -5.686122|   -2.547332|   -2.548326|    1.315887|
|         107|   -5.685421|   -2.546038|   -2.547699|    1.316515|
|         108|   -5.684682|   -2.544765|   -2.547184|    1.317178|
|         109|   -5.683892|   -2.543514|   -2.546801|    1.317890|
|         110|   -5.683039|   -2.542284|   -2.546568|    1.318662|
|         111|   -5.682116|   -2.541078|   -2.546505|    1.319503|
|         112|   -5.681118|   -2.539897|   -2.546631|    1.320416|
|         113|   -5.680043|   -2.538741|   -2.546963|    1.321402|
|         114|   -5.678894|   -2.537611|   -2.547511|    1.322458|
|         115|   -5.677678|   -2.536509|   -2.548284|    1.323578|
|         116|   -5.676405|   -2.535433|   -2.549282|    1.324750|
|         117|   -5.675086|   -2.534385|   -2.550497|    1.325963|
|         118|   -5.673739|   -2.533364|   -2.551911|    1.327200|
|         119|   -5.672379|   -2.532368|   -2.553496|    1.328446|
|         120|   -5.671025|   -2.531399|   -2.555215|    1.329682|
|         121|   -5.669697|   -2.530456|   -2.557018|    1.330890|
|         122|   -5.668413|   -2.529541|   -2.558850|    1.332052|
|         123|   -5.667192|   -2.528655|   -2.560646|    1.333150|
|         124|   -5.666051|   -2.527805|   -2.562340|    1.334166|
|         125|   -5.665007|   -2.526995|   -2.563865|    1.335084|
|         126|   -5.664072|   -2.526233|   -2.565158|    1.335891|
|         127|   -5.663254|   -2.525528|   -2.566166|    1.336577|
|         128|   -5.662560|   -2.524890|   -2.566848|    1.337135|
|         129|   -5.661988|   -2.524328|   -2.567183|    1.337564|
|         130|   -5.661532|   -2.523853|   -2.567170|    1.337869|
|         131|   -5.661181|   -2.523472|   -2.566832|    1.338060|
|         132|   -5.660916|   -2.523192|   -2.566211|    1.338156|
|         133|   -5.660713|   -2.523016|   -2.565375|    1.338181|
|         134|   -5.660542|   -2.522943|   -2.564406|    1.338165|
|         135|   -5.660369|   -2.522968|   -2.563398|    1.338145|
|         136|   -5.660160|   -2.523083|   -2.562455|    1.338159|
|         137|   -5.659879|   -2.523272|   -2.561679|    1.338249|
|         138|   -5.659490|   -2.523519|   -2.561169|    1.338454|
|         139|   -5.658965|   -2.523801|   -2.561013|    1.338810|
|         140|   -5.658281|   -2.524093|   -2.561283|    1.339346|
|         141|   -5.657425|   -2.524368|   -2.562031|    1.340082|
|         142|   -5.656394|   -2.524598|   -2.563289|    1.341027|
|         143|   -5.655196|   -2.524755|   -2.565059|    1.342177|
|         144|   -5.653853|   -2.524814|   -2.567321|    1.343513|
|         145|   -5.652396|   -2.524750|   -2.570024|    1.345006|
|         146|   -5.650864|   -2.524543|   -2.573091|    1.346613|
|         147|   -5.649308|   -2.524179|   -2.576421|    1.348284|
|         148|   -5.647777|   -2.523647|   -2.579889|    1.349961|
|         149|   -5.646328|   -2.522942|   -2.583359|    1.351583|
|         150|   -5.645013|   -2.522065|   -2.586682|    1.353090|
|         151|   -5.643882|   -2.521021|   -2.589713|    1.354423|
|         152|   -5.642977|   -2.519821|   -2.592316|    1.355531|
|         153|   -5.642335|   -2.518480|   -2.594376|    1.356370|
|         154|   -5.641981|   -2.517015|   -2.595810|    1.356904|
|         155|   -5.641931|   -2.515449|   -2.596569|    1.357109|
|         156|   -5.642191|   -2.513802|   -2.596643|    1.356974|
|         157|   -5.642755|   -2.512099|   -2.596063|    1.356496|
|         158|   -5.643610|   -2.510366|   -2.594893|    1.355685|
|         159|   -5.644733|   -2.508626|   -2.593225|    1.354560|
|         160|   -5.646092|   -2.506903|   -2.591169|    1.353149|
|         161|   -5.647653|   -2.505222|   -2.588843|    1.351487|
|         162|   -5.649374|   -2.503604|   -2.586367|    1.349614|
|         163|   -5.651212|   -2.502070|   -2.583853|    1.347576|
|         164|   -5.653125|   -2.500640|   -2.581401|    1.345421|
|         165|   -5.655068|   -2.499329|   -2.579098|    1.343196|
|         166|   -5.656999|   -2.498154|   -2.577016|    1.340951|
|         167|   -5.658879|   -2.497125|   -2.575211|    1.338733|
|         168|   -5.660671|   -2.496251|   -2.573728|    1.336588|
|         169|   -5.662341|   -2.495538|   -2.572602|    1.334558|
|         170|   -5.663857|   -2.494988|   -2.571862|    1.332686|
|         171|   -5.665193|   -2.494600|   -2.571533|    1.331010|
|         172|   -5.666322|   -2.494367|   -2.571641|    1.329564|
|         173|   -5.667224|   -2.494280|   -2.572211|    1.328381|
|         174|   -5.667877|   -2.494327|   -2.573274|    1.327490|
|         175|   -5.668267|   -2.494491|   -2.574864|    1.326915|
|         176|   -5.668382|   -2.494752|   -2.577016|    1.326675|
|         177|   -5.668215|   -2.495089|   -2.579769|    1.326781|
|         178|   -5.667764|   -2.495480|   -2.583161|    1.327239|
|         179|   -5.667037|   -2.495900|   -2.587227|    1.328043|
|         180|   -5.666046|   -2.496328|   -2.591994|    1.329178|
|         181|   -5.664814|   -2.496742|   -2.597479|    1.330621|
|         182|   -5.663370|   -2.497125|   -2.603685|    1.332336|
|         183|   -5.661752|   -2.497465|   -2.610596|    1.334278|
|         184|   -5.660004|   -2.497751|   -2.618171|    1.336395|
|         185|   -5.658177|   -2.497982|   -2.626343|    1.338625|
|         186|   -5.656324|   -2.498161|   -2.635014|    1.340906|
|         187|   -5.654500|   -2.498298|   -2.644052|    1.343172|
|         188|   -5.652758|   -2.498406|   -2.653288|    1.345357|
|         189|   -5.651152|   -2.498506|   -2.662523|    1.347399|
|         190|   -5.649728|   -2.498623|   -2.671527|    1.349240|
|         191|   -5.648528|   -2.498783|   -2.680051|    1.350832|
|         192|   -5.647584|   -2.499014|   -2.687840|    1.352131|
|         193|   -5.646923|   -2.499346|   -2.694650|    1.353107|
|         194|   -5.646560|   -2.499806|   -2.700269|    1.353737|
|         195|   -5.646502|   -2.500418|   -2.704537|    1.354010|
|         196|   -5.646747|   -2.501201|   -2.707363|    1.353926|
|         197|   -5.647284|   -2.502172|   -2.708735|    1.353494|
|         198|   -5.648095|   -2.503338|   -2.708722|    1.352732|
|         199|   -5.649152|   -2.504700|   -2.707463|    1.351667|
|         200|   -5.650425|   -2.506252|   -2.705158|    1.350333|
+-----------------------------------------------------------------------+
|        File Writing Summary       |              Filename             |
+-----------------------------------------------------------------------+
|SU2 binary restart                 |restart_flow.dat                   |
|Paraview                           |flow.vtu                           |
|CSV file                           |surface_flow.csv                   |
+-----------------------------------------------------------------------+
+----------------------------------------------------------------+
|  Inner_Iter|    rms[Rho]|   rms[RhoU]|   rms[RhoV]|   rms[RhoE]|
+----------------------------------------------------------------+
|         201|   -5.651878|   -2.507980|   -2.702041|    1.348770|
|         202|   -5.653471|   -2.509861|   -2.698368|    1.347021|
|         203|   -5.655165|   -2.511865|   -2.694392|    1.345132|
|         204|   -5.656919|   -2.513957|   -2.690353|    1.343150|
|         205|   -5.658696|   -2.516094|   -2.686468|    1.341121|
|         206|   -5.660461|   -2.518231|   -2.682924|    1.339086|
|         207|   -5.662184|   -2.520319|   -2.679873|    1.337083|
|         208|   -5.663840|   -2.522311|   -2.677439|    1.335145|
|         209|   -5.665410|   -2.524161|   -2.675711|    1.333296|
|         210|   -5.666884|   -2.525827|   -2.674751|    1.331554|
|         211|   -5.668255|   -2.527276|   -2.674592|    1.329929|
|         212|   -5.669525|   -2.528482|   -2.675241|    1.328423|
|         213|   -5.670701|   -2.529430|   -2.676683|    1.327031|
|         214|   -5.671793|   -2.530117|   -2.678880|    1.325741|
|         215|   -5.672816|   -2.530549|   -2.681774|    1.324538|
|         216|   -5.673790|   -2.530747|   -2.685287|    1.323401|
|         217|   -5.674731|   -2.530738|   -2.689325|    1.322309|
|         218|   -5.675660|   -2.530559|   -2.693778|    1.321240|
|         219|   -5.676593|   -2.530255|   -2.698527|    1.320171|
|         220|   -5.677547|   -2.529871|   -2.703442|    1.319082|
|         221|   -5.678533|   -2.529457|   -2.708393|    1.317957|
|         222|   -5.679562|   -2.529058|   -2.713253|    1.316784|
|         223|   -5.680637|   -2.528719|   -2.717903|    1.315554|
|         224|   -5.681761|   -2.528479|   -2.722240|    1.314263|
|         225|   -5.682930|   -2.528371|   -2.726182|    1.312913|
|         226|   -5.684138|   -2.528420|   -2.729671|    1.311509|
|         227|   -5.685378|   -2.528642|   -2.732675|    1.310061|
|         228|   -5.686639|   -2.529046|   -2.735189|    1.308580|
|         229|   -5.687909|   -2.529634|   -2.737230|    1.307079|
|         230|   -5.689177|   -2.530398|   -2.738834|    1.305572|
|         231|   -5.690434|   -2.531325|   -2.740050|    1.304073|
|         232|   -5.691671|   -2.532394|   -2.740932|    1.302591|
|         233|   -5.692885|   -2.533583|   -2.741533|    1.301136|
|         234|   -5.694075|   -2.534864|   -2.741899|    1.299712|
|         235|   -5.695243|   -2.536209|   -2.742066|    1.298318|
|         236|   -5.696397|   -2.537588|   -2.742054|    1.296949|
|         237|   -5.697546|   -2.538975|   -2.741871|    1.295598|
|         238|   -5.698704|   -2.540344|   -2.741511|    1.294252|
|         239|   -5.699886|   -2.541674|   -2.740957|    1.292895|
|         240|   -5.701107|   -2.542947|   -2.740185|    1.291511|
|         241|   -5.702383|   -2.544149|   -2.739170|    1.290083|
|         242|   -5.703728|   -2.545273|   -2.737890|    1.288595|
|         243|   -5.705151|   -2.546316|   -2.736333|    1.287035|
|         244|   -5.706660|   -2.547277|   -2.734502|    1.285394|
|         245|   -5.708257|   -2.548160|   -2.732415|    1.283667|
|         246|   -5.709936|   -2.548972|   -2.730110|    1.281855|
|         247|   -5.711689|   -2.549721|   -2.727644|    1.279967|
|         248|   -5.713501|   -2.550417|   -2.725090|    1.278017|
|         249|   -5.715349|   -2.551067|   -2.722536|    1.276024|
|         250|   -5.717210|   -2.551682|   -2.720080|    1.274015|
|         251|   -5.719053|   -2.552270|   -2.717826|    1.272018|
|         252|   -5.720847|   -2.552836|   -2.715877|    1.270068|
|         253|   -5.722561|   -2.553387|   -2.714334|    1.268197|
|         254|   -5.724162|   -2.553925|   -2.713289|    1.266441|
|         255|   -5.725622|   -2.554453|   -2.712824|    1.264830|
|         256|   -5.726916|   -2.554972|   -2.713008|    1.263391|
|         257|   -5.728026|   -2.555483|   -2.713895|    1.262148|
|         258|   -5.728938|   -2.555985|   -2.715522|    1.261114|
|         259|   -5.729648|   -2.556479|   -2.717909|    1.260298|
|         260|   -5.730157|   -2.556965|   -2.721057|    1.259699|
|         261|   -5.730476|   -2.557444|   -2.724949|    1.259307|
|         262|   -5.730621|   -2.557916|   -2.729546|    1.259107|
|         263|   -5.730615|   -2.558386|   -2.734792|    1.259076|
|         264|   -5.730483|   -2.558856|   -2.740607|    1.259185|
|         265|   -5.730258|   -2.559330|   -2.746894|    1.259402|
|         266|   -5.729970|   -2.559815|   -2.753534|    1.259694|
|         267|   -5.729653|   -2.560316|   -2.760393|    1.260025|
|         268|   -5.729338|   -2.560840|   -2.767319|    1.260361|
|         269|   -5.729056|   -2.561395|   -2.774149|    1.260669|
|         270|   -5.728834|   -2.561988|   -2.780715|    1.260919|
|         271|   -5.728695|   -2.562624|   -2.786850|    1.261085|
|         272|   -5.728658|   -2.563312|   -2.792395|    1.261145|
|         273|   -5.728739|   -2.564057|   -2.797212|    1.261084|
|         274|   -5.728948|   -2.564864|   -2.801189|    1.260888|
|         275|   -5.729289|   -2.565736|   -2.804249|    1.260551|
|         276|   -5.729763|   -2.566676|   -2.806358|    1.260071|
|         277|   -5.730368|   -2.567685|   -2.807525|    1.259451|
|         278|   -5.731094|   -2.568761|   -2.807800|    1.258699|
|         279|   -5.731930|   -2.569902|   -2.807273|    1.257825|
|         280|   -5.732861|   -2.571103|   -2.806066|    1.256845|
|         281|   -5.733868|   -2.572360|   -2.804322|    1.255778|
|         282|   -5.734932|   -2.573662|   -2.802202|    1.254645|
|         283|   -5.736031|   -2.575002|   -2.799869|    1.253468|
|         284|   -5.737142|   -2.576367|   -2.797486|    1.252272|
|         285|   -5.738241|   -2.577746|   -2.795210|    1.251081|
|         286|   -5.739307|   -2.579125|   -2.793183|    1.249921|
|         287|   -5.740317|   -2.580490|   -2.791534|    1.248815|
|         288|   -5.741254|   -2.581827|   -2.790376|    1.247784|
|         289|   -5.742099|   -2.583121|   -2.789803|    1.246847|
|         290|   -5.742841|   -2.584359|   -2.789892|    1.246021|
|         291|   -5.743470|   -2.585526|   -2.790700|    1.245316|
|         292|   -5.743981|   -2.586611|   -2.792268|    1.244739|
|         293|   -5.744375|   -2.587602|   -2.794616|    1.244291|
|         294|   -5.744658|   -2.588492|   -2.797747|    1.243969|
|         295|   -5.744837|   -2.589273|   -2.801642|    1.243764|
|         296|   -5.744929|   -2.589940|   -2.806263|    1.243661|
|         297|   -5.744950|   -2.590493|   -2.811548|    1.243643|
|         298|   -5.744924|   -2.590931|   -2.817412|    1.243686|
|         299|   -5.744873|   -2.591258|   -2.823744|    1.243764|
|         300|   -5.744825|   -2.591480|   -2.830409|    1.243849|
+-----------------------------------------------------------------------+
|        File Writing Summary       |              Filename             |
+-----------------------------------------------------------------------+
|SU2 binary restart                 |restart_flow.dat                   |
|Paraview                           |flow.vtu                           |
|CSV file                           |surface_flow.csv                   |
+-----------------------------------------------------------------------+
+----------------------------------------------------------------+
|  Inner_Iter|    rms[Rho]|   rms[RhoU]|   rms[RhoV]|   rms[RhoE]|
+----------------------------------------------------------------+
|         301|   -5.744806|   -2.591604|   -2.837247|    1.243913|
|         302|   -5.744843|   -2.591639|   -2.844074|    1.243924|
|         303|   -5.744962|   -2.591599|   -2.850689|    1.243854|
|         304|   -5.745188|   -2.591494|   -2.856879|    1.243676|
|         305|   -5.745541|   -2.591341|   -2.862429|    1.243366|
|         306|   -5.746039|   -2.591152|   -2.867138|    1.242902|
|         307|   -5.746696|   -2.590943|   -2.870828|    1.242268|
|         308|   -5.747521|   -2.590729|   -2.873361|    1.241453|
|         309|   -5.748518|   -2.590524|   -2.874653|    1.240451|
|         310|   -5.749684|   -2.590342|   -2.874678|    1.239260|
|         311|   -5.751014|   -2.590196|   -2.873472|    1.237887|
|         312|   -5.752496|   -2.590096|   -2.871131|    1.236342|
|         313|   -5.754113|   -2.590054|   -2.867798|    1.234643|
|         314|   -5.755844|   -2.590076|   -2.863652|    1.232810|
|         315|   -5.757664|   -2.590170|   -2.858894|    1.230871|
|         316|   -5.759544|   -2.590342|   -2.853730|    1.228854|
|         317|   -5.761455|   -2.590594|   -2.848365|    1.226793|
|         318|   -5.763365|   -2.590927|   -2.842984|    1.224722|
|         319|   -5.765243|   -2.591342|   -2.837756|    1.222675|
|         320|   -5.767059|   -2.591837|   -2.832823|    1.220685|
|         321|   -5.768786|   -2.592409|   -2.828303|    1.218784|
|         322|   -5.770398|   -2.593052|   -2.824287|    1.216999|
|         323|   -5.771877|   -2.593760|   -2.820841|    1.215354|
|         324|   -5.773207|   -2.594528|   -2.818010|    1.213865|
|         325|   -5.774379|   -2.595346|   -2.815815|    1.212546|
|         326|   -5.775390|   -2.596207|   -2.814262|    1.211400|
|         327|   -5.776242|   -2.597100|   -2.813339|    1.210426|
|         328|   -5.776941|   -2.598018|   -2.813018|    1.209617|
|         329|   -5.777500|   -2.598950|   -2.813261|    1.208960|
|         330|   -5.777934|   -2.599888|   -2.814018|    1.208439|
|         331|   -5.778262|   -2.600822|   -2.815232|    1.208031|
|         332|   -5.778505|   -2.601744|   -2.816838|    1.207715|
|         333|   -5.778683|   -2.602647|   -2.818767|    1.207465|
|         334|   -5.778820|   -2.603523|   -2.820948|    1.207256|
|         335|   -5.778934|   -2.604367|   -2.823309|    1.207066|
|         336|   -5.779045|   -2.605175|   -2.825778|    1.206872|
|         337|   -5.779171|   -2.605944|   -2.828289|    1.206653|
|         338|   -5.779325|   -2.606671|   -2.830777|    1.206394|
|         339|   -5.779519|   -2.607356|   -2.833185|    1.206081|
|         340|   -5.779762|   -2.608000|   -2.835465|    1.205703|
|         341|   -5.780059|   -2.608606|   -2.837573|    1.205253|
|         342|   -5.780414|   -2.609177|   -2.839477|    1.204729|
|         343|   -5.780825|   -2.609718|   -2.841152|    1.204129|
|         344|   -5.781293|   -2.610235|   -2.842580|    1.203456|
|         345|   -5.781812|   -2.610735|   -2.843752|    1.202714|
|         346|   -5.782376|   -2.611226|   -2.844667|    1.201910|
|         347|   -5.782981|   -2.611715|   -2.845327|    1.201053|
|         348|   -5.783616|   -2.612212|   -2.845743|    1.200153|
|         349|   -5.784274|   -2.612725|   -2.845927|    1.199219|
|         350|   -5.784947|   -2.613262|   -2.845899|    1.198263|
|         351|   -5.785624|   -2.613830|   -2.845680|    1.197296|
|         352|   -5.786299|   -2.614437|   -2.845295|    1.196330|
|         353|   -5.786961|   -2.615088|   -2.844772|    1.195377|
|         354|   -5.787604|   -2.615788|   -2.844141|    1.194447|
|         355|   -5.788219|   -2.616541|   -2.843435|    1.193550|
|         356|   -5.788800|   -2.617348|   -2.842688|    1.192698|
|         357|   -5.789341|   -2.618210|   -2.841938|    1.191898|
|         358|   -5.789837|   -2.619125|   -2.841220|    1.191159|
|         359|   -5.790282|   -2.620090|   -2.840574|    1.190489|
|         360|   -5.790675|   -2.621101|   -2.840037|    1.189894|
|         361|   -5.791013|   -2.622150|   -2.839647|    1.189379|
|         362|   -5.791294|   -2.623229|   -2.839438|    1.188947|
|         363|   -5.791519|   -2.624330|   -2.839444|    1.188601|
|         364|   -5.791690|   -2.625442|   -2.839694|    1.188341|
|         365|   -5.791810|   -2.626554|   -2.840215|    1.188166|
|         366|   -5.791884|   -2.627654|   -2.841027|    1.188074|
|         367|   -5.791916|   -2.628730|   -2.842147|    1.188059|
|         368|   -5.791915|   -2.629770|   -2.843584|    1.188116|
|         369|   -5.791890|   -2.630763|   -2.845340|    1.188236|
|         370|   -5.791848|   -2.631697|   -2.847414|    1.188410|
|         371|   -5.791803|   -2.632564|   -2.849792|    1.188627|
|         372|   -5.791763|   -2.633353|   -2.852459|    1.188876|
|         373|   -5.791743|   -2.634058|   -2.855389|    1.189144|
|         374|   -5.791752|   -2.634674|   -2.858551|    1.189418|
|         375|   -5.791804|   -2.635196|   -2.861906|    1.189685|
|         376|   -5.791910|   -2.635623|   -2.865412|    1.189931|
|         377|   -5.792080|   -2.635954|   -2.869021|    1.190144|
|         378|   -5.792325|   -2.636190|   -2.872682|    1.190313|
|         379|   -5.792653|   -2.636336|   -2.876342|    1.190427|
|         380|   -5.793071|   -2.636394|   -2.879949|    1.190476|
|         381|   -5.793585|   -2.636372|   -2.883450|    1.190454|
|         382|   -5.794199|   -2.636275|   -2.886800|    1.190354|
|         383|   -5.794915|   -2.636112|   -2.889953|    1.190172|
|         384|   -5.795732|   -2.635890|   -2.892875|    1.189906|
|         385|   -5.796650|   -2.635619|   -2.895537|    1.189556|
|         386|   -5.797664|   -2.635306|   -2.897921|    1.189122|
|         387|   -5.798769|   -2.634960|   -2.900017|    1.188609|
|         388|   -5.799959|   -2.634589|   -2.901824|    1.188021|
|         389|   -5.801223|   -2.634201|   -2.903352|    1.187363|
|         390|   -5.802554|   -2.633803|   -2.904618|    1.186644|
|         391|   -5.803940|   -2.633400|   -2.905646|    1.185871|
|         392|   -5.805369|   -2.633000|   -2.906464|    1.185053|
|         393|   -5.806829|   -2.632607|   -2.907105|    1.184199|
|         394|   -5.808309|   -2.632226|   -2.907604|    1.183319|
|         395|   -5.809796|   -2.631859|   -2.907995|    1.182420|
|         396|   -5.811278|   -2.631510|   -2.908310|    1.181513|
|         397|   -5.812745|   -2.631181|   -2.908579|    1.180603|
|         398|   -5.814185|   -2.630875|   -2.908830|    1.179700|
|         399|   -5.815591|   -2.630592|   -2.909082|    1.178807|
|         400|   -5.816954|   -2.630335|   -2.909353|    1.177929|
+-----------------------------------------------------------------------+
|        File Writing Summary       |              Filename             |
+-----------------------------------------------------------------------+
|SU2 binary restart                 |restart_flow.dat                   |
|Paraview                           |flow.vtu                           |
|CSV file                           |surface_flow.csv                   |
+-----------------------------------------------------------------------+
+----------------------------------------------------------------+
|  Inner_Iter|    rms[Rho]|   rms[RhoU]|   rms[RhoV]|   rms[RhoE]|
+----------------------------------------------------------------+
|         401|   -5.818267|   -2.630103|   -2.909651|    1.177071|
|         402|   -5.819525|   -2.629898|   -2.909984|    1.176233|
|         403|   -5.820726|   -2.629721|   -2.910349|    1.175417|
|         404|   -5.821867|   -2.629572|   -2.910742|    1.174621|
|         405|   -5.822946|   -2.629453|   -2.911153|    1.173844|
|         406|   -5.823965|   -2.629363|   -2.911569|    1.173083|
|         407|   -5.824925|   -2.629305|   -2.911976|    1.172335|
|         408|   -5.825830|   -2.629279|   -2.912355|    1.171596|
|         409|   -5.826681|   -2.629287|   -2.912691|    1.170861|
|         410|   -5.827482|   -2.629329|   -2.912968|    1.170125|
|         411|   -5.828239|   -2.629407|   -2.913171|    1.169385|
|         412|   -5.828953|   -2.629522|   -2.913289|    1.168636|
|         413|   -5.829631|   -2.629675|   -2.913315|    1.167875|
|         414|   -5.830274|   -2.629868|   -2.913247|    1.167099|
|         415|   -5.830886|   -2.630100|   -2.913088|    1.166307|
|         416|   -5.831469|   -2.630374|   -2.912844|    1.165497|
|         417|   -5.832025|   -2.630689|   -2.912527|    1.164670|
|         418|   -5.832555|   -2.631045|   -2.912156|    1.163827|
|         419|   -5.833058|   -2.631443|   -2.911751|    1.162971|
|         420|   -5.833535|   -2.631882|   -2.911335|    1.162105|
|         421|   -5.833985|   -2.632361|   -2.910935|    1.161233|
|         422|   -5.834407|   -2.632879|   -2.910579|    1.160360|
|         423|   -5.834797|   -2.633435|   -2.910291|    1.159491|
|         424|   -5.835156|   -2.634028|   -2.910099|    1.158633|
|         425|   -5.835482|   -2.634654|   -2.910025|    1.157790|
|         426|   -5.835772|   -2.635314|   -2.910088|    1.156969|
|         427|   -5.836028|   -2.636004|   -2.910302|    1.156174|
|         428|   -5.836247|   -2.636722|   -2.910678|    1.155409|
|         429|   -5.836432|   -2.637466|   -2.911219|    1.154678|
|         430|   -5.836583|   -2.638235|   -2.911920|    1.153983|
|         431|   -5.836703|   -2.639026|   -2.912773|    1.153325|
|         432|   -5.836796|   -2.639838|   -2.913761|    1.152704|
|         433|   -5.836865|   -2.640669|   -2.914860|    1.152119|
|         434|   -5.836917|   -2.641517|   -2.916040|    1.151566|
|         435|   -5.836957|   -2.642382|   -2.917267|    1.151042|
|         436|   -5.836990|   -2.643263|   -2.918500|    1.150542|
|         437|   -5.837025|   -2.644159|   -2.919697|    1.150061|
|         438|   -5.837068|   -2.645068|   -2.920813|    1.149593|
|         439|   -5.837125|   -2.645992|   -2.921804|    1.149131|
|         440|   -5.837202|   -2.646930|   -2.922625|    1.148669|
|         441|   -5.837306|   -2.647881|   -2.923239|    1.148201|
|         442|   -5.837441|   -2.648846|   -2.923612|    1.147722|
|         443|   -5.837611|   -2.649823|   -2.923717|    1.147227|
|         444|   -5.837819|   -2.650814|   -2.923538|    1.146712|
|         445|   -5.838065|   -2.651816|   -2.923067|    1.146176|
|         446|   -5.838351|   -2.652830|   -2.922307|    1.145617|
|         447|   -5.838675|   -2.653854|   -2.921270|    1.145036|
|         448|   -5.839035|   -2.654886|   -2.919982|    1.144434|
|         449|   -5.839425|   -2.655926|   -2.918472|    1.143816|
|         450|   -5.839842|   -2.656970|   -2.916782|    1.143184|
|         451|   -5.840279|   -2.658017|   -2.914957|    1.142545|
|         452|   -5.840729|   -2.659062|   -2.913046|    1.141905|
|         453|   -5.841185|   -2.660103|   -2.911103|    1.141272|
|         454|   -5.841639|   -2.661135|   -2.909180|    1.140652|
|         455|   -5.842083|   -2.662155|   -2.907330|    1.140055|
|         456|   -5.842509|   -2.663157|   -2.905603|    1.139486|
|         457|   -5.842911|   -2.664136|   -2.904045|    1.138954|
|         458|   -5.843282|   -2.665088|   -2.902699|    1.138465|
|         459|   -5.843616|   -2.666008|   -2.901602|    1.138025|
|         460|   -5.843909|   -2.666888|   -2.900786|    1.137637|
|         461|   -5.844158|   -2.667726|   -2.900278|    1.137304|
|         462|   -5.844362|   -2.668514|   -2.900096|    1.137027|
|         463|   -5.844521|   -2.669248|   -2.900255|    1.136807|
|         464|   -5.844635|   -2.669922|   -2.900764|    1.136641|
|         465|   -5.844708|   -2.670534|   -2.901622|    1.136526|
|         466|   -5.844745|   -2.671077|   -2.902828|    1.136456|
|         467|   -5.844751|   -2.671550|   -2.904370|    1.136426|
|         468|   -5.844733|   -2.671948|   -2.906235|    1.136427|
|         469|   -5.844698|   -2.672270|   -2.908401|    1.136451|
|         470|   -5.844655|   -2.672514|   -2.910845|    1.136489|
|         471|   -5.844613|   -2.672679|   -2.913537|    1.136531|
|         472|   -5.844580|   -2.672765|   -2.916444|    1.136567|
|         473|   -5.844566|   -2.672773|   -2.919529|    1.136589|
|         474|   -5.844580|   -2.672705|   -2.922755|    1.136585|
|         475|   -5.844628|   -2.672563|   -2.926079|    1.136549|
|         476|   -5.844720|   -2.672351|   -2.929462|    1.136471|
|         477|   -5.844861|   -2.672072|   -2.932860|    1.136346|
|         478|   -5.845057|   -2.671731|   -2.936233|    1.136168|
|         479|   -5.845311|   -2.671333|   -2.939544|    1.135934|
|         480|   -5.845627|   -2.670884|   -2.942757|    1.135640|
|         481|   -5.846005|   -2.670391|   -2.945841|    1.135286|
|         482|   -5.846447|   -2.669860|   -2.948771|    1.134873|
|         483|   -5.846949|   -2.669299|   -2.951529|    1.134404|
|         484|   -5.847508|   -2.668716|   -2.954101|    1.133883|
|         485|   -5.848121|   -2.668117|   -2.956483|    1.133315|
|         486|   -5.848780|   -2.667511|   -2.958676|    1.132708|
|         487|   -5.849479|   -2.666906|   -2.960689|    1.132072|
|         488|   -5.850209|   -2.666311|   -2.962536|    1.131415|
|         489|   -5.850961|   -2.665733|   -2.964238|    1.130748|
|         490|   -5.851724|   -2.665181|   -2.965819|    1.130084|
|         491|   -5.852488|   -2.664663|   -2.967305|    1.129434|
|         492|   -5.853241|   -2.664189|   -2.968727|    1.128811|
|         493|   -5.853973|   -2.663765|   -2.970112|    1.128226|
|         494|   -5.854672|   -2.663402|   -2.971490|    1.127692|
|         495|   -5.855327|   -2.663108|   -2.972884|    1.127220|
|         496|   -5.855930|   -2.662891|   -2.974317|    1.126820|
|         497|   -5.856471|   -2.662762|   -2.975804|    1.126501|
|         498|   -5.856941|   -2.662729|   -2.977354|    1.126272|
|         499|   -5.857334|   -2.662802|   -2.978971|    1.126138|

----------------------------- Solver Exit -------------------------------

Maximum number of iterations reached (ITER = 500) before convergence.
+-----------------------------------------------------------------------+
|      Convergence Field     |     Value    |   Criterion  |  Converged |
+-----------------------------------------------------------------------+
|                    rms[Rho]|      -5.85733|          < -8|          No|
+-----------------------------------------------------------------------+
-------------------------------------------------------------------------
+-----------------------------------------------------------------------+
|        File Writing Summary       |              Filename             |
+-----------------------------------------------------------------------+
|SU2 binary restart                 |restart_flow.dat                   |
|Paraview                           |flow.vtu                           |
|CSV file                           |surface_flow.csv                   |
+-----------------------------------------------------------------------+

--------------------------- Finalizing Solver ---------------------------
Deleted CNumerics container.
Deleted CIntegration container.
Deleted CSolver container.
Deleted CIteration container.
Deleted CInterface container.
Deleted CGeometry container.
Deleted CFreeFormDefBox class.
Deleted CSurfaceMovement class.
Deleted CVolumetricMovement class.
Deleted CConfig container.
Deleted nInst container.
Deleted COutput class.
-------------------------------------------------------------------------

------------------------- Exit Success (SU2_CFD) ------------------------

