
-------------------------------------------------------------------------
|    ___ _   _ ___                                                      |
|   / __| | | |_  )   Release 8.3.0 "Harrier"                           |
|   \__ \ |_| |/ /                                                      |
|   |___/\___//___|   Suite (Computational Fluid Dynamics Code)         |
|                                                                       |
-------------------------------------------------------------------------
| SU2 Project Website: https://su2code.github.io                        |
|                                                                       |
| The SU2 Project is maintained by the SU2 Foundation                   |
| (http://su2foundation.org)                                            |
-------------------------------------------------------------------------
| Copyright 2012-2025, SU2 Contributors                                 |
|                                                                       |
| SU2 is free software; you can redistribute it and/or                  |
| modify it under the terms of the GNU Lesser General Public            |
| License as published by the Free Software Foundation; either          |
| version 2.1 of the License, or (at your option) any later version.    |
|                                                                       |
| SU2 is distributed in the hope that it will be useful,                |
| but WITHOUT ANY WARRANTY; without even the implied warranty of        |
| MERCHANTABILITY or FITNESS FOR A PARTICULAR PURPOSE. See the GNU      |
| Lesser General Public License for more details.                       |
|                                                                       |
| You should have received a copy of the GNU Lesser General Public      |
| License along with SU2. If not, see <http://www.gnu.org/licenses/>.   |
-------------------------------------------------------------------------

Parsing config file for zone 0

----------------- Physical Case Definition ( Zone 0 ) -------------------
Compressible Euler equations.
Mach number: 0.3.
Angle of attack (AoA): 0 deg, and angle of sideslip (AoS): 0 deg.
No restart solution, use the values at infinity (freestream).
Dimensional simulation.
The reference area is 0.0833333 ft^2.
The semi-span will be computed using the max y(3D) value.
The reference length is 0.0833333 ft.
Reference origin for moment evaluation is (0, 0, 0).
Surface(s) where the force coefficients are evaluated: Airfoils.

Surface(s) plotted in the output file: Airfoils.
Input mesh file name: swirler_n6_c2_AoA10_NACA8412.su2

--------------- Space Numerical Integration ( Zone 0 ) ------------------
Jameson-Schmidt-Turkel scheme (2nd order in space) for the flow inviscid terms.
JST viscous coefficients (2nd & 4th): 0.5, 0.75.
The method includes a grid stretching correction (p = 0.3).
Gradient for viscous and source terms: inverse-distance weighted Least-Squares.

--------------- Time Numerical Integration  ( Zone 0 ) ------------------
Local time stepping (steady state simulation).
Euler implicit method for the flow equations.
FGMRES is used for solving the linear system.
Using a ILU(0) preconditioning.
Convergence criteria of the linear solver: 0.0001.
Max number of linear iterations: 100.
CFL adaptation. Factor down: 0.5, factor up: 1.5,
                lower limit: 0.5, upper limit: 30,
                acceptable linear residual: 0.001'
                starting iteration: 0.
Courant-Friedrichs-Lewy number:      1.2

------------------ Convergence Criteria  ( Zone 0 ) ---------------------
Maximum number of solver subiterations: 1000.
Begin convergence monitoring at iteration 10.
Residual minimum value: 1e-8.
Cauchy series min. value: 1e-06.
Number of Cauchy elements: 100.
Begin windowed time average at iteration 0.

-------------------- Output Information ( Zone 0 ) ----------------------
File writing frequency: 
+------------------------------------+
|                     File| Frequency|
+------------------------------------+
|                  RESTART|       500|
|                 PARAVIEW|       500|
|              SURFACE_CSV|       500|
+------------------------------------+
Writing the convergence history file every 1 inner iterations.
Writing the screen convergence history every 1 inner iterations.
The tabular file format is CSV (.csv).
Convergence history file name: history.
Forces breakdown file name: forces_breakdown.dat.
Surface file name: surface_flow.
Volume file name: flow.
Restart file name: restart_flow.

------------- Config File Boundary Information ( Zone 0 ) ---------------
+-----------------------------------------------------------------------+
|                        Marker Type|                        Marker Name|
+-----------------------------------------------------------------------+
|                         Euler wall|                           Airfoils|
+-----------------------------------------------------------------------+
|                  Periodic boundary|                          Symmetry2|
|                                   |                          Symmetry1|
+-----------------------------------------------------------------------+
|                     Inlet boundary|                              Inlet|
+-----------------------------------------------------------------------+
|                    Outlet boundary|                             Outlet|
+-----------------------------------------------------------------------+

-------------------- Output Preprocessing ( Zone 0 ) --------------------

WARNING: SURFACE_PRESSURE_DROP can only be computed for at least 2 surfaces (outlet, inlet, ...)

Screen output fields: INNER_ITER, RMS_DENSITY, RMS_MOMENTUM-X, RMS_MOMENTUM-Y, RMS_ENERGY
History output group(s): ITER, RMS_RES
Convergence field(s): RMS_DENSITY
Warning: No (valid) fields chosen for time convergence monitoring. Time convergence monitoring inactive.
Volume output fields: COORDINATES, SOLUTION, PRIMITIVE

------------------- Geometry Preprocessing ( Zone 0 ) -------------------
Two dimensional problem.
36004 grid points.
70716 volume elements.
5 surface markers.
1188 boundary elements in index 0 (Marker = Airfoils).
13 boundary elements in index 1 (Marker = Inlet).
44 boundary elements in index 2 (Marker = Symmetry1).
44 boundary elements in index 3 (Marker = Symmetry2).
13 boundary elements in index 4 (Marker = Outlet).
70716 triangles.
Setting point connectivity.
Renumbering points (Reverse Cuthill McKee Ordering).
Recomputing point connectivity.
Setting element connectivity.
Checking the numerical grid orientation.
All volume elements are correctly oriented.
All surface elements are correctly oriented.
Identifying edges and vertices.
Setting the control volume structure.
Area of the computational grid: 0.95648.
Searching for the closest normal neighbors to the surfaces.
Storing a mapping from global to local point index.
Compute the surface curvature.
Max K: 90341.5. Mean K: 461.144. Standard deviation K: 6107.72.
Checking for periodicity.
Computing mesh quality statistics for the dual control volumes.
+--------------------------------------------------------------+
|           Mesh Quality Metric|        Minimum|        Maximum|
+--------------------------------------------------------------+
|    Orthogonality Angle (deg.)|        39.9083|        88.2804|
|     CV Face Area Aspect Ratio|        1.00054|         528.46|
|           CV Sub-Volume Ratio|              1|        11826.9|
+--------------------------------------------------------------+
Finding max control volume width.
Wetted area = 1.03634 ft.
Area projection in the x-plane = 0.128616 ft, y-plane = 0.492444 ft.
Max. coordinate in the x-direction = 0.748734 ft, y-direction = 0.486939 ft.
Min. coordinate in the x-direction = 0.666641 ft, y-direction = 0.0291625 ft.
Matching the periodic boundary points for marker pair 1.
 Matched 90 points with a max distance of: 0.
Computing wall distances.

-------------------- Solver Preprocessing ( Zone 0 ) --------------------
Inviscid flow: Computing density based on free-stream
temperature and pressure using the ideal gas law.
Force coefficients computed using free-stream values.

-- Models:
+------------------------------------------------------------------------------+
|          Viscosity Model|        Conductivity Model|              Fluid Model|
+------------------------------------------------------------------------------+
|                        -|                         -|             STANDARD_AIR|
+------------------------------------------------------------------------------+
-- Fluid properties:
+------------------------------------------------------------------------------+
|                  Name|    Dim. value|    Ref. value|      Unit|Non-dim. value|
+------------------------------------------------------------------------------+
|          Gas Constant|       1716.49|             1|lbf.ft/slug.R|       1716.49|
|      Spec. Heat Ratio|             -|             -|         -|           1.4|
+------------------------------------------------------------------------------+
-- Initial and free-stream conditions:
+------------------------------------------------------------------------------+
|                  Name|    Dim. value|    Ref. value|      Unit|Non-dim. value|
+------------------------------------------------------------------------------+
|       Static Pressure|       2116.22|             1|       psf|       2116.22|
|               Density|   0.000742695|             1| slug/ft^3|   0.000742695|
|           Temperature|          1660|             1|         R|          1660|
|          Total Energy|   7.30294e+06|             1|  ft^2/s^2|   7.30294e+06|
|            Velocity-X|       599.184|             1|      ft/s|       599.184|
|            Velocity-Y|             0|             1|      ft/s|             0|
|    Velocity Magnitude|       599.184|             1|      ft/s|       599.184|
+------------------------------------------------------------------------------+
|           Mach Number|             -|             -|         -|           0.3|
+------------------------------------------------------------------------------+
Initialize Jacobian structure (Euler). MG level: 0.

------------------- Numerics Preprocessing ( Zone 0 ) -------------------

----------------- Integration Preprocessing ( Zone 0 ) ------------------

------------------- Iteration Preprocessing ( Zone 0 ) ------------------
Euler/Navier-Stokes/RANS fluid iteration.

------------------------------ Begin Solver -----------------------------

Simulation Run using the Single-zone Driver
WARNING: SU2 was not compiled for an AVX-capable architecture. Performance could be better,
         see https://su2code.github.io/docs_v7/Build-SU2-Linux-MacOS/#compiler-optimizations
+----------------------------------------------------------------+
|  Inner_Iter|    rms[Rho]|   rms[RhoU]|   rms[RhoV]|   rms[RhoE]|
+----------------------------------------------------------------+
|           0|   -4.678971|   -1.809893|    0.787448|    2.333049|
|           1|   -3.865542|   -0.885130|    0.764830|    3.143291|
|           2|   -3.573568|   -0.745635|    0.751368|    3.433709|
|           3|   -3.401837|   -0.607628|    0.746204|    3.604186|
|           4|   -3.279799|   -0.495408|    0.747657|    3.725235|
|           5|   -3.186310|   -0.405368|    0.753523|    3.818037|
|           6|   -3.111467|   -0.331758|    0.762430|    3.892532|
|           7|   -3.049025|   -0.269387|    0.773557|    3.954947|
|           8|   -2.995814|   -0.215185|    0.785708|    4.008356|
|           9|   -2.949875|   -0.167031|    0.797802|    4.054581|
|          10|   -2.910761|   -0.125161|    0.808337|    4.093766|
|          11|   -2.877283|   -0.088461|    0.817600|    4.127185|
|          12|   -2.848388|   -0.055833|    0.825840|    4.155954|
|          13|   -2.823225|   -0.026415|    0.833258|    4.180971|
|          14|   -2.801122|    0.000446|    0.840011|    4.202942|
|          15|   -2.781532|    0.025215|    0.846213|    4.222438|
|          16|   -2.764020|    0.048202|    0.851960|    4.239907|
|          17|   -2.748240|    0.069634|    0.857326|    4.255699|
|          18|   -2.733920|    0.089582|    0.862368|    4.270087|
|          19|   -2.720837|    0.108167|    0.867139|    4.283290|
|          20|   -2.708815|    0.125519|    0.871680|    4.295476|
|          21|   -2.697711|    0.141623|    0.876028|    4.306784|
|          22|   -2.687412|    0.156568|    0.880215|    4.317318|
|          23|   -2.677814|    0.170444|    0.884269|    4.327172|
|          24|   -2.668835|    0.183387|    0.888214|    4.336419|
|          25|   -2.660421|    0.195502|    0.892055|    4.345103|
|          26|   -2.652516|    0.206964|    0.895809|    4.353277|
|          27|   -2.645063|    0.217810|    0.899491|    4.360989|
|          28|   -2.638013|    0.228129|    0.903115|    4.368284|
|          29|   -2.631320|    0.237975|    0.906692|    4.375202|
|          30|   -2.623678|    0.247904|    0.910875|    4.382877|
|          31|   -2.617296|    0.257164|    0.914572|    4.389396|
|          32|   -2.611193|    0.266018|    0.918232|    4.395614|
|          33|   -2.605348|    0.274525|    0.921853|    4.401554|
|          34|   -2.599718|    0.282837|    0.925463|    4.407254|
|          35|   -2.594269|    0.290893|    0.929061|    4.412742|
|          36|   -2.589144|    0.298181|    0.932548|    4.417885|
|          37|   -2.583177|    0.307449|    0.936608|    4.423707|
|          38|   -2.577320|    0.316767|    0.940680|    4.429386|
|          39|   -2.571548|    0.326321|    0.944763|    4.434943|
|          40|   -2.565838|    0.336255|    0.948863|    4.440401|
|          41|   -2.560151|    0.346799|    0.952988|    4.445789|
|          42|   -2.554465|    0.358096|    0.957138|    4.451127|
|          43|   -2.548724|    0.370698|    0.961334|    4.456464|
|          44|   -2.542958|    0.383950|    0.965565|    4.461750|
|          45|   -2.537033|    0.398540|    0.969882|    4.467118|
|          46|   -2.531152|    0.414628|    0.974159|    4.472347|
|          47|   -2.524160|    0.435465|    0.979030|    4.478523|
|          48|   -2.516913|    0.457051|    0.984051|    4.484815|
|          49|   -2.509180|    0.481790|    0.989264|    4.491426|
|          50|   -2.501083|    0.507864|    0.994649|    4.498206|
|          51|   -2.492508|    0.535320|    1.000271|    4.505226|
|          52|   -2.483402|    0.564139|    1.006146|    4.512505|
|          53|   -2.473689|    0.593936|    1.012319|    4.520088|
|          54|   -2.463137|    0.626596|    1.018787|    4.528134|
|          55|   -2.451768|    0.660464|    1.025624|    4.536575|
|          56|   -2.439543|    0.695491|    1.032811|    4.545392|
|          57|   -2.426453|    0.731644|    1.040287|    4.554531|
|          58|   -2.412437|    0.768480|    1.048090|    4.563992|
|          59|   -2.397105|    0.807246|    1.056310|    4.574019|
|          60|   -2.380561|    0.846724|    1.064964|    4.584479|
|          61|   -2.362692|    0.886849|    1.074095|    4.595388|
|          62|   -2.343421|    0.927506|    1.083744|    4.606759|
|          63|   -2.322749|    0.968538|    1.093878|    4.618527|
|          64|   -2.300364|    1.010546|    1.104583|    4.630869|
|          65|   -2.276339|    1.053056|    1.115920|    4.643698|
|          66|   -2.250208|    1.097792|    1.127900|    4.657077|
|          67|   -2.226488|    1.130439|    1.140051|    4.669639|
|          68|   -2.199254|    1.171951|    1.152837|    4.683095|
|          69|   -2.167703|    1.221946|    1.166467|    4.697858|
|          70|   -2.145884|    1.250198|    1.177767|    4.711041|
|          71|   -2.129668|    1.265983|    1.188607|    4.722805|
|          72|   -2.111246|    1.284865|    1.200155|    4.734929|
|          73|   -2.088553|    1.313368|    1.212699|    4.748497|
|          74|   -2.066985|    1.339625|    1.224858|    4.762798|
|          75|   -2.045791|    1.365130|    1.237179|    4.777015|
|          76|   -2.020870|    1.396208|    1.251512|    4.793446|
|          77|   -1.995391|    1.427233|    1.266928|    4.811378|
|          78|   -1.968783|    1.459012|    1.283576|    4.830952|
|          79|   -1.947265|    1.480827|    1.300633|    4.849097|
|          80|   -1.920803|    1.511277|    1.317981|    4.870847|
|          81|   -1.893726|    1.541583|    1.337110|    4.893498|
|          82|   -1.869935|    1.566319|    1.356085|    4.915479|
|          83|   -1.843039|    1.595039|    1.376441|    4.938991|
|          84|   -1.825066|    1.612860|    1.388887|    4.956185|
|          85|   -1.798140|    1.640602|    1.410608|    4.980075|
|          86|   -1.778532|    1.658123|    1.428829|    4.999506|
|          87|   -1.765811|    1.668983|    1.436808|    5.011465|
|          88|   -1.741553|    1.692855|    1.456562|    5.031574|
|          89|   -1.718197|    1.715486|    1.475621|    5.050319|
|          90|   -1.692148|    1.740823|    1.497982|    5.071205|
|          91|   -1.664950|    1.767139|    1.522169|    5.093261|
|          92|   -1.637349|    1.793668|    1.547376|    5.115861|
|          93|   -1.613081|    1.816545|    1.569302|    5.135258|
|          94|   -1.586476|    1.841823|    1.594130|    5.156199|
|          95|   -1.559229|    1.867663|    1.620177|    5.177447|
|          96|   -1.531613|    1.893822|    1.647124|    5.198864|
|          97|   -1.503795|    1.920126|    1.674697|    5.220321|
|          98|   -1.475838|    1.946503|    1.702835|    5.241777|
|          99|   -1.447863|    1.972843|    1.731341|    5.263142|
|         100|   -1.419792|    1.999211|    1.760283|    5.284600|
|         101|   -1.394693|    2.022815|    1.786251|    5.303891|
|         102|   -1.415291|    2.002761|    1.765411|    5.294477|
|         103|   -1.432132|    1.985433|    1.750115|    5.286319|
|         104|   -1.436567|    1.980853|    1.746596|    5.287502|
|         105|   -1.431344|    1.985917|    1.752680|    5.296100|
|         106|   -1.418741|    1.998427|    1.765987|    5.310743|
|         107|   -1.400513|    2.016563|    1.784870|    5.330324|
|         108|   -1.379231|    2.037718|    1.807020|    5.352897|
|         109|   -1.355656|    2.061110|    1.831865|    5.377251|
|         110|   -1.329810|    2.086577|    1.859550|    5.403544|
|         111|   -1.327569|    2.090669|    1.861397|    5.412654|
|         112|   -1.316768|    2.102748|    1.872626|    5.425729|
|         113|   -1.299860|    2.120283|    1.890928|    5.441915|
|         114|   -1.282061|    2.138636|    1.910193|    5.457764|
|         115|   -1.256561|    2.163772|    1.938941|    5.479888|
|         116|   -1.226928|    2.192385|    1.973173|    5.506043|
|         117|   -1.205747|    2.213446|    1.997459|    5.526630|
|         118|   -1.183492|    2.235426|    2.023538|    5.549427|
|         119|   -1.162565|    2.255912|    2.048893|    5.571937|
|         120|   -1.141358|    2.276757|    2.074515|    5.594376|
|         121|   -1.119477|    2.298362|    2.100693|    5.617393|
|         122|   -1.098106|    2.319142|    2.126843|    5.639753|
|         123|   -1.072862|    2.343270|    2.157763|    5.665282|
|         124|   -1.046657|    2.368485|    2.189063|    5.691892|
|         125|   -1.015493|    2.398004|    2.226427|    5.722535|
|         126|   -0.982505|    2.429253|    2.265321|    5.754837|
|         127|   -0.949916|    2.459940|    2.303727|    5.786877|
|         128|   -0.916896|    2.491044|    2.342267|    5.819247|
|         129|   -0.883286|    2.522817|    2.381052|    5.852639|
|         130|   -0.899195|    2.507309|    2.363614|    5.845726|
|         131|   -0.912720|    2.494246|    2.348577|    5.843252|
|         132|   -0.928005|    2.478995|    2.332566|    5.841731|
|         133|   -0.940385|    2.466766|    2.319140|    5.848229|
|         134|   -0.955630|    2.452339|    2.301884|    5.839879|
|         135|   -0.961773|    2.446393|    2.295009|    5.835029|
|         136|   -0.965275|    2.444123|    2.289802|    5.831338|
|         137|   -0.950487|    2.459289|    2.305292|    5.840141|
|         138|   -0.927662|    2.482412|    2.329687|    5.855872|
|         139|   -0.898056|    2.512134|    2.361743|    5.878250|
|         140|   -0.864804|    2.545235|    2.397993|    5.904983|
|         141|   -0.829266|    2.580492|    2.436740|    5.935156|
|         142|   -0.792750|    2.616595|    2.476507|    5.967461|
|         143|   -0.757283|    2.651570|    2.515155|    6.000007|
|         144|   -0.722245|    2.686025|    2.553343|    6.033246|
|         145|   -0.688441|    2.719095|    2.590383|    6.066167|
|         146|   -0.657915|    2.748714|    2.624311|    6.097219|
|         147|   -0.628987|    2.776757|    2.656532|    6.125001|
|         148|   -0.599516|    2.805307|    2.689341|    6.156304|
|         149|   -0.569757|    2.834093|    2.722461|    6.187694|
|         150|   -0.539726|    2.863097|    2.755908|    6.218211|
|         151|   -0.509720|    2.892034|    2.789341|    6.249473|
|         152|   -0.479839|    2.920808|    2.822654|    6.280927|
|         153|   -0.450209|    2.949286|    2.855707|    6.312096|
|         154|   -0.421376|    2.976937|    2.887929|    6.343413|
|         155|   -0.392806|    3.004309|    2.919922|    6.373259|
|         156|   -0.388285|    3.008556|    2.924919|    6.372874|
|         157|   -0.382457|    3.013935|    2.931529|    6.378299|
|         158|   -0.372655|    3.023208|    2.942459|    6.391421|
|         159|   -0.358916|    3.036367|    2.957652|    6.409439|
|         160|   -0.343745|    3.050766|    2.974757|    6.426581|
|         161|   -0.326767|    3.066867|    2.994023|    6.445739|
|         162|   -0.307746|    3.084936|    3.015750|    6.467046|
|         163|   -0.288320|    3.103380|    3.038209|    6.489378|
|         164|   -0.265734|    3.124948|    3.063997|    6.515332|
|         165|   -0.242042|    3.147627|    3.090986|    6.542028|
|         166|   -0.217772|    3.170906|    3.118591|    6.571520|
|         167|   -0.193713|    3.194023|    3.145910|    6.601190|
|         168|   -0.169954|    3.216846|    3.172894|    6.630193|
|         169|   -0.146477|    3.239427|    3.199535|    6.661988|
|         170|   -0.124228|    3.260820|    3.224892|    6.692683|
|         171|   -0.105400|    3.278562|    3.247295|    6.721092|
|         172|   -0.082355|    3.300823|    3.273341|    6.751550|
|         173|   -0.059638|    3.322763|    3.299015|    6.778942|
|         174|   -0.037224|    3.344464|    3.324339|    6.810995|
|         175|   -0.015175|    3.365762|    3.349264|    6.843840|
|         176|    0.006526|    3.386790|    3.373811|    6.876167|
|         177|    0.027883|    3.407522|    3.398002|    6.912338|
|         178|    0.048605|    3.427640|    3.421547|    6.946676|
|         179|    0.068809|    3.447245|    3.444564|    6.978708|
|         180|    0.069762|    3.447688|    3.446016|    6.948090|
|         181|    0.073266|    3.450680|    3.450353|    6.934268|
|         182|    0.079761|    3.456663|    3.458037|    6.934181|
|         183|    0.086288|    3.462627|    3.465981|    6.942634|
|         184|    0.090134|    3.465736|    3.471630|    6.953471|
|         185|    0.099948|    3.474961|    3.483300|    6.970140|
|         186|    0.112637|    3.487101|    3.498053|    6.990308|
|         187|    0.126885|    3.500758|    3.514669|    7.012357|
|         188|    0.144293|    3.517671|    3.534468|    7.036884|
|         189|    0.163395|    3.536253|    3.556126|    7.059794|
|         190|    0.184049|    3.556411|    3.579433|    7.090834|
|         191|    0.204675|    3.576515|    3.602736|    7.122130|
|         192|    0.224447|    3.595777|    3.625200|    7.144419|
|         193|    0.243777|    3.614583|    3.647256|    7.169696|
|         194|    0.261698|    3.631695|    3.668523|    7.197791|
|         195|    0.279540|    3.649056|    3.689091|    7.222233|
|         196|    0.296816|    3.665790|    3.709084|    7.249698|
|         197|    0.311552|    3.679976|    3.726741|    7.273425|
|         198|    0.327648|    3.695547|    3.745504|    7.293590|
|         199|    0.342809|    3.710107|    3.763350|    7.308360|
|         200|    0.357583|    3.724363|    3.780813|    7.329290|
|         201|    0.371797|    3.738169|    3.797735|    7.358242|
|         202|    0.385472|    3.751217|    3.814085|    7.367614|
|         203|    0.398529|    3.763719|    3.829863|    7.387772|
|         204|    0.411264|    3.775933|    3.845298|    7.408317|
|         205|    0.422235|    3.786324|    3.859101|    7.423092|
|         206|    0.433434|    3.796719|    3.873616|    7.436654|
|         207|    0.445037|    3.807863|    3.887849|    7.449559|
|         208|    0.456433|    3.818835|    3.901832|    7.459286|
|         209|    0.467506|    3.829506|    3.915398|    7.477977|
|         210|    0.478171|    3.839785|    3.928549|    7.489549|
|         211|    0.488637|    3.849917|    3.941493|    7.500007|
|         212|    0.498803|    3.859782|    3.954170|    7.510447|
|         213|    0.507647|    3.868301|    3.965673|    7.521207|
|         214|    0.517355|    3.877824|    3.977787|    7.530819|
|         215|    0.520679|    3.880903|    3.981894|    7.511998|
|         216|    0.524606|    3.884617|    3.986855|    7.500983|
|         217|    0.530056|    3.889904|    3.993657|    7.499345|
|         218|    0.534681|    3.894243|    4.000291|    7.504792|
|         219|    0.541057|    3.900597|    4.008404|    7.515855|
|         220|    0.547373|    3.906927|    4.016826|    7.531377|
|         221|    0.554857|    3.914480|    4.026626|    7.548796|
|         222|    0.562307|    3.922158|    4.036285|    7.570223|
|         223|    0.568765|    3.928827|    4.045240|    7.586013|
|         224|    0.574305|    3.934714|    4.053194|    7.597691|
|         225|    0.582301|    3.943245|    4.063400|    7.612083|
|         226|    0.589959|    3.951475|    4.073433|    7.628484|
|         227|    0.597512|    3.959718|    4.083007|    7.644740|
|         228|    0.603794|    3.966659|    4.091562|    7.663516|
|         229|    0.608916|    3.972520|    4.098993|    7.681864|
|         230|    0.616229|    3.980723|    4.108193|    7.695470|
|         231|    0.622928|    3.988386|    4.116747|    7.712124|
|         232|    0.629802|    3.996267|    4.125556|    7.731141|
|         233|    0.634488|    4.001959|    4.132234|    7.752255|
|         234|    0.641548|    4.010262|    4.140977|    7.779414|
|         235|    0.647594|    4.017713|    4.148784|    7.813950|
|         236|    0.655673|    4.027321|    4.158399|    7.841979|
|         237|    0.662359|    4.035623|    4.166760|    7.869316|
|         238|    0.671578|    4.046610|    4.177405|    7.893320|
|         239|    0.678070|    4.054837|    4.185476|    7.918303|
|         240|    0.686856|    4.065530|    4.195770|    7.956061|
|         241|    0.696016|    4.076721|    4.206240|    7.998000|
|         242|    0.701933|    4.084734|    4.213516|    8.044038|
|         243|    0.706409|    4.091438|    4.219377|    8.083337|
|         244|    0.710500|    4.097859|    4.224643|    8.105559|
|         245|    0.713110|    4.102888|    4.228457|    8.119613|
|         246|    0.715882|    4.108203|    4.232356|    8.138045|
|         247|    0.718050|    4.112992|    4.235351|    8.156105|
|         248|    0.719056|    4.116726|    4.237091|    8.177251|
|         249|    0.718588|    4.119044|    4.237359|    8.202614|
|         250|    0.715968|    4.119275|    4.235510|    8.225677|
|         251|    0.713438|    4.119594|    4.233397|    8.246788|
|         252|    0.708645|    4.117550|    4.229053|    8.263881|
|         253|    0.705328|    4.117037|    4.226139|    8.288991|
|         254|    0.705310|    4.119819|    4.226648|    8.308684|
|         255|    0.707732|    4.124988|    4.229724|    8.334334|
|         256|    0.711268|    4.131133|    4.234084|    8.364134|
|         257|    0.716868|    4.139213|    4.240469|    8.392254|
|         258|    0.723562|    4.148219|    4.247990|    8.423573|
|         259|    0.731192|    4.158101|    4.256479|    8.449486|
|         260|    0.739439|    4.168404|    4.265611|    8.478503|
|         261|    0.748340|    4.179268|    4.275389|    8.508416|
|         262|    0.758822|    4.191666|    4.286687|    8.539152|
|         263|    0.772585|    4.207658|    4.301126|    8.579456|
|         264|    0.788760|    4.226254|    4.317838|    8.601917|
|         265|    0.806447|    4.246491|    4.335952|    8.641317|
|         266|    0.813385|    4.253450|    4.343268|    8.582879|
|         267|    0.822567|    4.263083|    4.352849|    8.547024|
|         268|    0.833700|    4.275132|    4.364398|    8.537243|
|         269|    0.846527|    4.289262|    4.377641|    8.529959|
|         270|    0.860730|    4.305130|    4.392237|    8.528133|
|         271|    0.876001|    4.322419|    4.407862|    8.545322|
|         272|    0.892068|    4.340802|    4.424239|    8.584336|
|         273|    0.908728|    4.360042|    4.441165|    8.617852|
|         274|    0.925752|    4.379840|    4.458413|    8.666312|
|         275|    0.943000|    4.399988|    4.475848|    8.698644|
|         276|    0.960340|    4.420344|    4.493348|    8.743051|
|         277|    0.977505|    4.440445|    4.510664|    8.771191|
|         278|    0.994483|    4.460354|    4.527790|    8.808849|
|         279|    1.011305|    4.480149|    4.544752|    8.877709|
|         280|    1.027911|    4.499806|    4.561510|    8.990148|
|         281|    1.044308|    4.519279|    4.578065|    9.005726|
|         282|    1.060472|    4.538503|    4.594398|    9.017214|
|         283|    1.076405|    4.557543|    4.610514|    9.039925|
|         284|    1.092036|    4.576237|    4.626350|    9.076819|
|         285|    1.107430|    4.594767|    4.641988|    9.105481|
|         286|    1.122720|    4.613186|    4.657546|    9.126188|
|         287|    1.138458|    4.632150|    4.673633|    9.158390|
|         288|    1.153621|    4.650526|    4.689102|    9.212085|
|         289|    1.168703|    4.668734|    4.704519|    9.227858|
|         290|    1.183710|    4.686815|    4.719894|    9.247279|
|         291|    1.198543|    4.704697|    4.735120|    9.270081|
|         292|    1.213137|    4.722324|    4.750144|    9.293001|
|         293|    1.227968|    4.740203|    4.765492|    9.330690|
|         294|    1.235480|    4.748442|    4.773332|    9.302320|
|         295|    1.243750|    4.757709|    4.781942|    9.298054|
|         296|    1.254400|    4.769890|    4.793290|    9.311750|
|         297|    1.263519|    4.780695|    4.802851|    9.325410|
|         298|    1.272925|    4.792029|    4.812717|    9.330491|
|         299|    1.282938|    4.804195|    4.823249|    9.418932|
|         300|    1.292402|    4.815930|    4.833203|    9.366481|
|         301|    1.303545|    4.829669|    4.845143|    9.405495|
|         302|    1.312798|    4.841425|    4.854875|    9.423210|
|         303|    1.321879|    4.853064|    4.864438|    9.440887|
|         304|    1.330764|    4.864563|    4.873806|    9.470033|
|         305|    1.340833|    4.877483|    4.884649|    9.493363|
|         306|    1.349107|    4.888431|    4.893404|    9.519507|
|         307|    1.357429|    4.899461|    4.902240|    9.556447|
|         308|    1.368010|    4.912987|    4.913564|    9.643748|
|         309|    1.375216|    4.922838|    4.921272|    9.671915|
|         310|    1.384067|    4.934599|    4.930910|    9.747270|
|         311|    1.392138|    4.945551|    4.939725|    9.770845|
|         312|    1.398426|    4.954508|    4.946493|    9.777194|
|         313|    1.405561|    4.964474|    4.954339|    9.785316|
|         314|    1.411934|    4.973640|    4.961235|    9.808779|
|         315|    1.418236|    4.982629|    4.968067|    9.824865|
|         316|    1.427016|    4.994245|    4.977606|    9.844855|
|         317|    1.433432|    5.003315|    4.984746|    9.857159|
|         318|    1.440692|    5.013360|    4.992794|    9.919400|
|         319|    1.447238|    5.022323|    4.999930|    9.930747|
|         320|    1.454140|    5.031562|    5.007462|    9.946709|
|         321|    1.461415|    5.041028|    5.015327|    9.960385|
|         322|    1.470623|    5.052715|    5.025380|    9.978142|
|         323|    1.479365|    5.063543|    5.034742|    9.989755|
|         324|    1.487654|    5.073831|    5.043659|    9.998927|
|         325|    1.497006|    5.085451|    5.053809|   10.018946|
|         326|    1.506247|    5.096649|    5.063658|   10.022026|
|         327|    1.515151|    5.107444|    5.073165|   10.024829|
|         328|    1.522731|    5.116436|    5.081359|   10.037780|
|         329|    1.532546|    5.128304|    5.091878|   10.048213|
|         330|    1.541224|    5.138316|    5.101100|   10.055652|
|         331|    1.549597|    5.147967|    5.109966|   10.066758|
|         332|    1.558995|    5.158590|    5.119805|   10.076554|
|         333|    1.568765|    5.169707|    5.129965|   10.080873|
|         334|    1.579267|    5.181720|    5.140849|   10.087665|
|         335|    1.589664|    5.193653|    5.151617|   10.137774|
|         336|    1.596425|    5.200721|    5.158548|   10.077958|
|         337|    1.603357|    5.207982|    5.165791|   10.130214|
|         338|    1.611171|    5.216419|    5.173965|   10.116189|
|         339|    1.619419|    5.225433|    5.182575|   10.108254|
|         340|    1.626488|    5.233387|    5.189947|   10.106761|
|         341|    1.633892|    5.241795|    5.197652|   10.111315|
|         342|    1.641561|    5.250523|    5.205611|   10.117729|
|         343|    1.649390|    5.259427|    5.213714|   10.127032|
|         344|    1.657482|    5.268601|    5.222061|   10.130023|
|         345|    1.665811|    5.277994|    5.230630|   10.132516|
|         346|    1.674355|    5.287584|    5.239379|   10.135621|
|         347|    1.683089|    5.297402|    5.248316|   10.143777|
|         348|    1.691873|    5.307147|    5.257269|   10.150288|
|         349|    1.700811|    5.317007|    5.266348|   10.158376|
|         350|    1.709946|    5.327013|    5.275611|   10.163169|
|         351|    1.718441|    5.336330|    5.284184|   10.170401|
|         352|    1.726466|    5.345145|    5.292265|   10.184216|
|         353|    1.733813|    5.353239|    5.299634|   10.196277|
|         354|    1.739390|    5.359530|    5.305165|   10.206369|
|         355|    1.737091|    5.358008|    5.302583|   10.223198|
|         356|    1.739865|    5.361258|    5.305301|   10.236044|
|         357|    1.747078|    5.368996|    5.312633|   10.247981|
|         358|    1.756793|    5.378936|    5.322520|   10.270118|
|         359|    1.760402|    5.382855|    5.326204|   10.296783|
|         360|    1.761265|    5.384066|    5.327131|   10.323168|
|         361|    1.761198|    5.384335|    5.327142|   10.363619|
|         362|    1.760060|    5.383485|    5.326135|   10.423355|
|         363|    1.761188|    5.384882|    5.327329|   10.480716|
|         364|    1.761588|    5.385446|    5.327849|   10.543764|
|         365|    1.763675|    5.387707|    5.329959|   10.595890|
|         366|    1.763263|    5.387362|    5.329660|   10.688932|
|         367|    1.761618|    5.385799|    5.328104|   10.817357|
|         368|    1.761468|    5.385701|    5.327993|   10.726362|
|         369|    1.761511|    5.385990|    5.328107|   10.681659|
|         370|    1.761510|    5.386275|    5.328204|   10.687486|
|         371|    1.761588|    5.386797|    5.328410|   10.729824|
|         372|    1.761691|    5.387407|    5.328690|   10.804960|
|         373|    1.761796|    5.388322|    5.329007|   10.880830|
|         374|    1.761899|    5.389301|    5.329349|   10.966233|
|         375|    1.762019|    5.390530|    5.329734|   11.043620|
|         376|    1.762176|    5.392241|    5.330194|   11.090355|
|         377|    1.762345|    5.393384|    5.330552|   11.020799|
|         378|    1.762562|    5.393577|    5.330958|   10.948617|
|         379|    1.762724|    5.392908|    5.331293|   10.931368|
|         380|    1.762780|    5.391712|    5.331477|   10.892094|
|         381|    1.762620|    5.390934|    5.331495|   10.843483|
|         382|    1.762770|    5.390680|    5.331824|   10.773140|
|         383|    1.762929|    5.390217|    5.332186|   10.720067|
|         384|    1.763107|    5.389771|    5.332644|   10.683211|
|         385|    1.763215|    5.389520|    5.333056|   10.665257|
|         386|    1.763467|    5.389865|    5.333694|   10.670459|
|         387|    1.763687|    5.390254|    5.334372|   10.694685|
|         388|    1.763895|    5.390719|    5.335128|   10.726632|
|         389|    1.764210|    5.391347|    5.335984|   10.760491|
|         390|    1.764615|    5.392028|    5.337019|   10.803209|
|         391|    1.765088|    5.392551|    5.337995|   10.809498|
|         392|    1.765558|    5.393069|    5.338839|   10.819821|
|         393|    1.765424|    5.393123|    5.339536|   10.847383|
|         394|    1.766008|    5.394155|    5.341143|   10.896677|
|         395|    1.766966|    5.395654|    5.343305|   10.956305|
|         396|    1.766842|    5.396126|    5.344102|   11.010179|
|         397|    1.767827|    5.397904|    5.346299|   11.093349|
|         398|    1.768819|    5.399870|    5.348864|   11.200894|
|         399|    1.770059|    5.402364|    5.352112|   11.320249|
|         400|    1.771707|    5.405465|    5.356133|   11.449420|
|         401|    1.773924|    5.409388|    5.361084|   11.219258|
|         402|    1.776812|    5.413981|    5.366922|   11.128770|
|         403|    1.780321|    5.419293|    5.373499|   11.149230|
|         404|    1.782370|    5.422778|    5.378094|   11.227065|
|         405|    1.784905|    5.426838|    5.383193|   11.236373|
|         406|    1.787285|    5.430714|    5.388206|   11.284781|
|         407|    1.789540|    5.434399|    5.393001|   11.310368|
|         408|    1.791678|    5.438021|    5.397862|   11.379769|
|         409|    1.794597|    5.442345|    5.403316|   11.464067|
|         410|    1.794309|    5.441379|    5.403114|   11.390014|
|         411|    1.796078|    5.443335|    5.405367|   11.357471|
|         412|    1.809680|    5.457175|    5.419820|   11.346751|
|         413|    1.811781|    5.459685|    5.423232|   11.365000|
|         414|    1.815429|    5.464283|    5.428995|   11.395695|
|         415|    1.818633|    5.468935|    5.434838|   11.421401|
|         416|    1.822460|    5.474911|    5.442584|   11.443862|
|         417|    1.824957|    5.478742|    5.447149|   11.482671|
|         418|    1.827521|    5.482654|    5.451740|   11.527324|
|         419|    1.830083|    5.486681|    5.456458|   11.582395|
|         420|    1.833201|    5.491693|    5.462101|   11.657261|
|         421|    1.836108|    5.496420|    5.467459|   11.721918|
|         422|    1.838751|    5.500747|    5.472284|   11.787526|
|         423|    1.841147|    5.505003|    5.476868|   11.860923|
|         424|    1.843192|    5.509099|    5.480966|   11.930786|
|         425|    1.845143|    5.513523|    5.484956|   12.018086|
|         426|    1.847014|    5.518211|    5.488954|   12.112163|
|         427|    1.848824|    5.524076|    5.493372|   12.243284|
|         428|    1.850616|    5.531588|    5.497668|   12.367864|
|         429|    1.852324|    5.536760|    5.501876|   12.454016|
|         430|    1.853968|    5.540229|    5.506136|   12.520584|
|         431|    1.856199|    5.543460|    5.510757|   12.600613|
|         432|    1.858723|    5.549490|    5.517301|   12.592046|
|         433|    1.861212|    5.555907|    5.522922|   12.607180|
|         434|    1.864357|    5.564556|    5.531114|   12.635502|
|         435|    1.866504|    5.572865|    5.536627|   12.666717|
|         436|    1.869496|    5.583096|    5.543751|   12.699491|
|         437|    1.872086|    5.589785|    5.547692|   12.691794|
|         438|    1.875801|    5.599153|    5.555968|   12.703681|
|         439|    1.877753|    5.607529|    5.561301|   12.739887|
|         440|    1.881829|    5.620532|    5.572182|   12.786200|
|         441|    1.884071|    5.632407|    5.579191|   12.831712|
|         442|    1.886130|    5.645674|    5.585872|   12.885856|
|         443|    1.888122|    5.660843|    5.593999|   12.951161|
|         444|    1.890040|    5.675951|    5.601760|   12.972734|
|         445|    1.879694|    5.654891|    5.588430|   12.856003|
|         446|    1.882575|    5.648134|    5.587222|   12.797656|
|         447|    1.891178|    5.654525|    5.594961|   12.792511|
|         448|    1.901438|    5.666637|    5.606486|   12.810499|
|         449|    1.911241|    5.678848|    5.617975|   12.814904|
|         450|    1.917363|    5.689365|    5.626029|   12.828306|
|         451|    1.923290|    5.701078|    5.634899|   12.851622|
|         452|    1.929964|    5.715195|    5.645245|   12.893646|
|         453|    1.937510|    5.732877|    5.657694|   12.948559|
|         454|    1.944441|    5.752960|    5.670909|   13.023404|
|         455|    1.951664|    5.775392|    5.684406|   13.080979|
|         456|    1.958837|    5.795372|    5.697018|   13.066155|
|         457|    1.965846|    5.817222|    5.709561|   13.092043|
|         458|    1.972629|    5.839826|    5.722850|   13.147685|
|         459|    1.979173|    5.863920|    5.738600|   13.221426|
|         460|    1.985466|    5.890059|    5.754183|   13.259210|
|         461|    1.991515|    5.916607|    5.769940|   13.244471|
|         462|    1.997237|    5.947418|    5.787019|   13.275494|
|         463|    2.002740|    5.976361|    5.806520|   13.328222|
|         464|    2.008063|    6.009906|    5.826598|   13.396967|
|         465|    2.009065|    6.040736|    5.843061|   13.465361|
|         466|    2.014640|    6.075575|    5.864868|   13.536948|
|         467|    2.020033|    6.106791|    5.881236|   13.608272|
|         468|    2.020933|    6.134195|    5.900198|   13.593761|
|         469|    2.020939|    6.155912|    5.915135|   13.587243|
|         470|    2.017543|    6.180303|    5.930305|   13.609587|
|         471|    2.024914|    6.191322|    5.948235|   13.634804|
|         472|    2.032520|    6.211079|    5.968496|   13.680531|
|         473|    2.040250|    6.235018|    5.988507|   13.741390|
|         474|    2.047886|    6.261251|    6.008117|   13.790868|
|         475|    2.057116|    6.287619|    6.034726|   13.856689|
|         476|    2.045886|    6.269624|    6.004022|   13.785807|
|         477|    2.037875|    6.271961|    5.989191|   13.756791|
|         478|    2.032969|    6.269414|    5.983314|   13.776998|
|         479|    2.021741|    6.304048|    6.000079|   13.824140|
|         480|    2.027435|    6.271140|    5.989840|   13.842687|
|         481|    2.037537|    6.281194|    6.008213|   13.855028|
|         482|    2.052350|    6.289745|    6.019588|   13.877282|
|         483|    2.071592|    6.305112|    6.039970|   13.914069|
|         484|    2.089771|    6.324955|    6.068074|   13.963762|
|         485|    2.099754|    6.342176|    6.089624|   13.965097|
|         486|    2.119055|    6.364686|    6.114880|   13.974323|
|         487|    2.137854|    6.392014|    6.148745|   14.026995|
|         488|    2.158820|    6.411646|    6.186419|   14.032558|
|         489|    2.175959|    6.439551|    6.238394|   14.063967|
|         490|    2.192108|    6.473400|    6.301582|   14.071224|
|         491|    2.207221|    6.489475|    6.312963|   14.091419|
|         492|    2.219824|    6.532527|    6.407727|   14.143780|
|         493|    2.234161|    6.553126|    6.441395|   14.149722|
|         494|    2.248980|    6.573756|    6.463130|   14.178132|
|         495|    2.262040|    6.594819|    6.483636|   14.204421|
|         496|    2.277527|    6.614380|    6.513053|   14.236076|
|         497|    2.289811|    6.624233|    6.511653|   14.282897|
|         498|    2.301796|    6.619274|    6.498677|   14.306703|
|         499|    2.313510|    6.624475|    6.502276|   14.346720|
|         500|    2.326055|    6.636273|    6.519727|   14.384542|
+-----------------------------------------------------------------------+
|        File Writing Summary       |              Filename             |
+-----------------------------------------------------------------------+
|SU2 binary restart                 |restart_flow.dat                   |
|Paraview                           |flow.vtu                           |
|CSV file                           |surface_flow.csv                   |
+-----------------------------------------------------------------------+
+----------------------------------------------------------------+
|  Inner_Iter|    rms[Rho]|   rms[RhoU]|   rms[RhoV]|   rms[RhoE]|
+----------------------------------------------------------------+
|         501|    2.337234|    6.646595|    6.542730|   14.429819|
|         502|    2.348437|    6.662081|    6.566250|   14.473504|
|         503|    2.361530|    6.677924|    6.594833|   14.515403|
|         504|    2.372436|    6.688122|    6.603122|   14.555766|
|         505|    2.377949|    6.650006|    6.550257|   14.486238|
|         506|    2.383528|    6.622989|    6.502650|   14.441069|
|         507|    2.389433|    6.609041|    6.474102|   14.446684|
|         508|    2.396318|    6.617324|    6.464963|   14.502988|
|         509|    2.405454|    6.622968|    6.467516|   14.544664|
|         510|    2.413643|    6.635182|    6.488222|   14.569926|
|         511|    2.422649|    6.644408|    6.510080|   14.576289|
|         512|    2.434498|    6.653796|    6.532559|   14.581240|
|         513|    2.441563|    6.665325|    6.550998|   14.598339|
|         514|    2.451852|    6.676376|    6.579374|   14.630109|
|         515|    2.461693|    6.684567|    6.588801|   14.638875|
|         516|    2.471310|    6.705381|    6.641450|   14.676727|
|         517|    2.480971|    6.723805|    6.663786|   14.731833|
|         518|    2.490540|    6.731461|    6.675024|   14.817269|
|         519|    2.500000|    6.747762|    6.688100|   14.936829|
|         520|    2.513072|    6.775329|    6.687783|   15.079707|
|         521|    2.522205|    6.785558|    6.689404|   15.243638|
|         522|    2.531274|    6.788995|    6.701633|   15.417337|
|         523|    2.540018|    6.797881|    6.700926|   15.423603|
|         524|    2.548887|    6.817610|    6.726591|   15.428987|
|         525|    2.558701|    6.831512|    6.732199|   15.428151|
|         526|    2.566595|    6.843346|    6.731075|   15.440063|
|         527|    2.574812|    6.859470|    6.736735|   15.488120|
|         528|    2.583356|    6.890630|    6.761382|   15.552843|
|         529|    2.592082|    6.899600|    6.762874|   15.651721|
|         530|    2.600808|    6.919251|    6.771716|   15.787164|
|         531|    2.610046|    6.934180|    6.773775|   15.948664|
|         532|    2.618793|    6.947313|    6.787377|   16.127180|
|         533|    2.622706|    6.958743|    6.780936|   16.306939|
|         534|    2.627035|    6.999571|    6.768812|   16.488491|
|         535|    2.631755|    7.081539|    6.768216|   16.664348|
|         536|    2.637430|    7.195729|    6.797416|   16.830197|
|         537|    2.646391|    7.310177|    6.847200|   16.978843|
|         538|    2.654262|    7.404100|    6.901284|   17.101250|
|         539|    2.662135|    7.455129|    6.938391|   17.185510|
|         540|    2.666955|    7.458861|    6.948258|   17.229254|
|         541|    2.674926|    7.415940|    6.937678|   17.228035|
|         542|    2.678558|    7.237825|    6.883799|   17.040828|
|         543|    2.682874|    7.055684|    6.814598|   16.767136|
|         544|    2.687783|    6.965246|    6.783840|   16.438702|
|         545|    2.695570|    6.969213|    6.805498|   16.128128|
|         546|    2.701633|    6.974927|    6.800543|   15.712568|
|         547|    2.709538|    7.007079|    6.840772|   15.775798|
|         548|    2.716560|    7.009003|    6.834176|   15.942214|
|         549|    2.721291|    7.036717|    6.836814|   16.122924|
|         550|    2.729497|    7.058728|    6.865684|   16.303779|
|         551|    2.737689|    7.069208|    6.872934|   16.483619|
|         552|    2.745984|    7.108176|    6.897691|   16.663435|
|         553|    2.756248|    7.137658|    6.916784|   16.843909|
|         554|    2.764370|    7.186188|    6.933307|   17.025203|
|         555|    2.772530|    7.267973|    6.965411|   17.207042|
|         556|    2.782437|    7.367374|    7.011874|   17.389054|
|         557|    2.790700|    7.491236|    7.068644|   17.569414|
|         558|    2.799092|    7.635562|    7.152018|   17.747479|
|         559|    2.807569|    7.787814|    7.254271|   17.921132|
|         560|    2.815711|    7.937167|    7.368916|   18.086729|
|         561|    2.821288|    8.079500|    7.488048|   18.243406|
|         562|    2.829790|    8.215444|    7.608020|   18.394127|
|         563|    2.833744|    7.955558|    7.414246|   18.152232|
|         564|    2.838412|    7.649127|    7.286100|   17.848959|
|         565|    2.846444|    7.365656|    7.230969|   17.483849|
|         566|    2.852255|    7.300734|    7.236801|   17.359799|
|         567|    2.859548|    7.347647|    7.263442|   17.494353|
|         568|    2.867945|    7.426324|    7.300028|   17.660567|
|         569|    2.875525|    7.522781|    7.316866|   17.822796|
|         570|    2.883235|    7.626592|    7.342158|   17.974209|
|         571|    2.891155|    7.731352|    7.377758|   18.122262|
|         572|    2.901220|    7.836021|    7.430940|   18.267069|
|         573|    2.906802|    7.944402|    7.506317|   18.411329|
|         574|    2.916023|    8.063017|    7.592085|   18.557878|
|         575|    2.924386|    8.194794|    7.669651|   18.707543|
|         576|    2.933809|    8.349530|    7.786403|   18.864342|
|         577|    2.942231|    8.322717|    7.773651|   18.821564|
|         578|    2.950641|    8.370746|    7.813572|   18.797254|
|         579|    2.959390|    8.400181|    7.839878|   18.796335|
|         580|    2.967819|    8.392973|    7.832799|   18.793448|
|         581|    2.976261|    8.389993|    7.831556|   18.792034|
|         582|    2.987826|    8.388660|    7.831697|   18.791840|
|         583|    2.993138|    8.387497|    7.832048|   18.792701|
|         584|    3.001782|    8.387222|    7.835714|   18.796772|
|         585|    3.010263|    8.428922|    7.864173|   18.774048|
|         586|    3.018702|    8.486347|    7.905741|   18.769352|
|         587|    3.028365|    8.486981|    7.908496|   18.769509|
|         588|    3.036797|    8.487141|    7.909706|   18.769551|
|         589|    3.045575|    8.487554|    7.911655|   18.769565|
|         590|    3.056117|    8.485700|    7.915905|   18.769507|
|         591|    3.065058|    8.532558|    7.948845|   18.787903|
|         592|    3.073078|    8.522717|    7.939645|   18.789375|
|         593|    3.079219|    8.525411|    7.945049|   18.785746|
|         594|    3.087620|    8.538073|    7.954747|   18.816427|
|         595|    3.096964|    8.538486|    7.957252|   18.816117|
|         596|    3.105303|    8.538740|    7.959070|   18.816118|
|         597|    3.114501|    8.539007|    7.960433|   18.816118|
|         598|    3.124773|    8.539423|    7.962857|   18.816118|
|         599|    3.132989|    8.539607|    7.965040|   18.816119|
|         600|    3.140905|    8.539738|    7.966048|   18.816119|
|         601|    3.148979|    8.540135|    7.968489|   18.816119|
|         602|    3.154726|    8.540632|    7.971817|   18.816120|
|         603|    3.163017|    8.541102|    7.975048|   18.816121|
|         604|    3.172225|    8.541443|    7.976805|   18.816122|
|         605|    3.181458|    8.541617|    7.977214|   18.816123|
|         606|    3.189830|    8.541965|    7.978579|   18.816124|
|         607|    3.200352|    8.542353|    7.980244|   18.816126|
|         608|    3.207992|    8.542829|    7.982917|   18.816128|
|         609|    3.215716|    8.543423|    7.986576|   18.816130|
|         610|    3.223598|    8.543953|    7.989416|   18.816130|
|         611|    3.231225|    8.544570|    7.993386|   18.816130|
|         612|    3.237730|    8.545506|    7.999986|   18.816131|
|         613|    3.248204|    8.546830|    8.010247|   18.816132|
|         614|    3.259231|    8.547566|    8.013717|   18.816135|
|         615|    3.267688|    8.548574|    8.018221|   18.816138|
|         616|    3.271713|    8.552156|    8.016931|   18.810779|
|         617|    3.276432|    8.555431|    8.024836|   18.822265|
|         618|    3.281828|    8.537135|    8.039234|   18.841793|
|         619|    3.287821|    8.540877|    8.043269|   18.839081|
|         620|    3.294682|    8.541336|    8.031179|   18.835900|
|         621|    3.302186|    8.541832|    8.022730|   18.833217|
|         622|    3.309417|    8.542103|    8.021046|   18.831474|
|         623|    3.316494|    8.541562|    8.021402|   18.830635|
|         624|    3.326712|    8.539482|    8.023432|   18.831476|
|         625|    3.334906|    8.533527|    8.025159|   18.834191|
|         626|    3.343004|    8.515245|    8.021651|   18.841447|
|         627|    3.350721|    8.516511|    8.030804|   18.842939|
|         628|    3.359273|    8.519465|    8.042272|   18.848320|
|         629|    3.368539|    8.526121|    8.055087|   18.862124|
|         630|    3.376633|    8.537609|    8.072604|   18.892922|
|         631|    3.384858|    8.556878|    8.101462|   18.953936|
|         632|    3.394748|    8.593160|    8.131897|   19.058270|
|         633|    3.403831|    8.658177|    8.161861|   19.201450|
|         634|    3.412665|    8.662942|    8.173496|   19.200712|
|         635|    3.422230|    8.747118|    8.213646|   19.378679|
|         636|    3.430936|    8.676118|    8.214053|   19.247676|
|         637|    3.439419|    8.633624|    8.228341|   19.116932|
|         638|    3.447477|    8.633412|    8.257372|   19.040608|
|         639|    3.455150|    8.678453|    8.284753|   19.064337|
|         640|    3.462445|    8.789687|    8.331047|   19.200350|
|         641|    3.469370|    8.710864|    8.325043|   19.122536|
|         642|    3.476025|    8.755518|    8.348340|   19.221236|
|         643|    3.482367|    8.765909|    8.366704|   19.303055|
|         644|    3.491843|    8.821313|    8.395513|   19.439360|
|         645|    3.497188|    8.884287|    8.428673|   19.588419|
|         646|    3.502662|    8.976623|    8.473515|   19.752121|
|         647|    3.506855|    9.063340|    8.521575|   19.911753|
|         648|    3.509048|    8.812969|    8.408141|   19.644999|
|         649|    3.511742|    8.727859|    8.377634|   19.439652|
|         650|    3.515530|    8.757609|    8.386071|   19.373684|
|         651|    3.520145|    8.821885|    8.410394|   19.436202|
|         652|    3.525337|    8.848668|    8.420111|   19.531792|
|         653|    3.534842|    8.917952|    8.441829|   19.689120|
|         654|    3.541680|    9.021516|    8.482954|   19.871118|


Error in "void CSolver::SetResidual_RMS(const CGeometry*, const CConfig*)": 
-------------------------------------------------------------------------
SU2 has diverged (Residual > 10^20 detected).
------------------------------ Error Exit -------------------------------



Total elapsed: 0:03:33
