
-------------------------------------------------------------------------
|    ___ _   _ ___                                                      |
|   / __| | | |_  )   Release 8.3.0 "Harrier"                           |
|   \__ \ |_| |/ /                                                      |
|   |___/\___//___|   Suite (Computational Fluid Dynamics Code)         |
|                                                                       |
-------------------------------------------------------------------------
| SU2 Project Website: https://su2code.github.io                        |
|                                                                       |
| The SU2 Project is maintained by the SU2 Foundation                   |
| (http://su2foundation.org)                                            |
-------------------------------------------------------------------------
| Copyright 2012-2025, SU2 Contributors                                 |
|                                                                       |
| SU2 is free software; you can redistribute it and/or                  |
| modify it under the terms of the GNU Lesser General Public            |
| License as published by the Free Software Foundation; either          |
| version 2.1 of the License, or (at your option) any later version.    |
|                                                                       |
| SU2 is distributed in the hope that it will be useful,                |
| but WITHOUT ANY WARRANTY; without even the implied warranty of        |
| MERCHANTABILITY or FITNESS FOR A PARTICULAR PURPOSE. See the GNU      |
| Lesser General Public License for more details.                       |
|                                                                       |
| You should have received a copy of the GNU Lesser General Public      |
| License along with SU2. If not, see <http://www.gnu.org/licenses/>.   |
-------------------------------------------------------------------------

Parsing config file for zone 0

----------------- Physical Case Definition ( Zone 0 ) -------------------
Compressible Laminar Navier-Stokes' equations.
Mach number: 0.3.
Angle of attack (AoA): 0 deg, and angle of sideslip (AoS): 0 deg.
Reynolds number: 89810. Reference length 0.166667.
No restart solution, use the values at infinity (freestream).
Dimensional simulation.
The reference area is 0.0833333 ft^2.
The semi-span will be computed using the max y(3D) value.
The reference length is 0.166667 ft.
Input mesh file name: swirler_n6_c2_AoA10_NACA8412.su2

--------------- Space Numerical Integration ( Zone 0 ) ------------------
Roe (with entropy fix = 0.1) solver for the flow inviscid terms.
Standard Roe without low-dissipation function.
Second order integration in space, with slope limiter.
Venkatakrishnan slope-limiting method, with constant: 0.05.
The reference element size is: 3.28084. 
Average of gradients with correction (viscous flow terms).
Gradient for upwind reconstruction: inverse-distance weighted Least-Squares.
Gradient for viscous and source terms: inverse-distance weighted Least-Squares.

--------------- Time Numerical Integration  ( Zone 0 ) ------------------
Local time stepping (steady state simulation).
Euler implicit method for the flow equations.
FGMRES is used for solving the linear system.
Using a ILU(0) preconditioning.
Convergence criteria of the linear solver: 1e-06.
Max number of linear iterations: 120.
CFL adaptation. Factor down: 0.5, factor up: 1.3,
                lower limit: 0.01, upper limit: 30,
                acceptable linear residual: 0.001'
                starting iteration: 0.
Courant-Friedrichs-Lewy number:      0.5

------------------ Convergence Criteria  ( Zone 0 ) ---------------------
Maximum number of solver subiterations: 2500.
Begin convergence monitoring at iteration 50.
Residual minimum value: 1e-8.
Cauchy series min. value: 1e-06.
Number of Cauchy elements: 100.
Begin windowed time average at iteration 0.

-------------------- Output Information ( Zone 0 ) ----------------------
File writing frequency: 
+------------------------------------+
|                     File| Frequency|
+------------------------------------+
|                  RESTART|       250|
|                 PARAVIEW|       250|
|              SURFACE_CSV|       250|
+------------------------------------+
Writing the convergence history file every 1 inner iterations.
Writing the screen convergence history every 1 inner iterations.
The tabular file format is CSV (.csv).
Convergence history file name: history.
Forces breakdown file name: forces_breakdown.dat.
Surface file name: surface_flow.
Volume file name: flow.
Restart file name: restart_flow.

------------- Config File Boundary Information ( Zone 0 ) ---------------
+-----------------------------------------------------------------------+
|                        Marker Type|                        Marker Name|
+-----------------------------------------------------------------------+
|                     Inlet boundary|                              Inlet|
+-----------------------------------------------------------------------+
|                    Outlet boundary|                             Outlet|
+-----------------------------------------------------------------------+
|                     Heat flux wall|                           Airfoils|
|                                   |                          Symmetry1|
|                                   |                          Symmetry2|
+-----------------------------------------------------------------------+

-------------------- Output Preprocessing ( Zone 0 ) --------------------

WARNING: SURFACE_PRESSURE_DROP can only be computed for at least 2 surfaces (outlet, inlet, ...)

Screen output fields: INNER_ITER, WALL_TIME, RMS_DENSITY, RMS_MOMENTUM-X, RMS_MOMENTUM-Y, RMS_ENERGY
History output group(s): ITER, RMS_RES
Convergence field(s): RMS_DENSITY
Warning: No (valid) fields chosen for time convergence monitoring. Time convergence monitoring inactive.
Volume output fields: COORDINATES, SOLUTION, PRIMITIVE

------------------- Geometry Preprocessing ( Zone 0 ) -------------------
Two dimensional problem.
118454 grid points.
235164 volume elements.
5 surface markers.
1188 boundary elements in index 0 (Marker = Airfoils).
63 boundary elements in index 1 (Marker = Inlet).
220 boundary elements in index 2 (Marker = Symmetry1).
220 boundary elements in index 3 (Marker = Symmetry2).
63 boundary elements in index 4 (Marker = Outlet).
235164 triangles.
Setting point connectivity.
Renumbering points (Reverse Cuthill McKee Ordering).
Recomputing point connectivity.
Setting element connectivity.
Checking the numerical grid orientation.
All volume elements are correctly oriented.
All surface elements are correctly oriented.
Identifying edges and vertices.
Setting the control volume structure.
Area of the computational grid: 0.95648.
Searching for the closest normal neighbors to the surfaces.
Storing a mapping from global to local point index.
Compute the surface curvature.
Max K: 90341.5. Mean K: 343.352. Standard deviation K: 5268.13.
Checking for periodicity.
Computing mesh quality statistics for the dual control volumes.
+--------------------------------------------------------------+
|           Mesh Quality Metric|        Minimum|        Maximum|
+--------------------------------------------------------------+
|    Orthogonality Angle (deg.)|        73.5946|        89.5571|
|     CV Face Area Aspect Ratio|        1.00005|        12.6932|
|           CV Sub-Volume Ratio|              1|        10.8599|
+--------------------------------------------------------------+
Finding max control volume width.
Wetted area = 0 ft.
Area projection in the x-plane = 0 ft, y-plane = 0 ft.
Max. coordinate in the x-direction = -1e+10 ft, y-direction = -1e+10 ft.
Min. coordinate in the x-direction = 1e+10 ft, y-direction = 1e+10 ft.
Computing wall distances.

-------------------- Solver Preprocessing ( Zone 0 ) --------------------
Viscous flow: Computing pressure using the ideal gas law
based on the free-stream temperature and a density computed
from the Reynolds number.
Force coefficients computed using free-stream values.

-- Models:
+------------------------------------------------------------------------------+
|          Viscosity Model|        Conductivity Model|              Fluid Model|
+------------------------------------------------------------------------------+
|               SUTHERLAND|          CONSTANT_PRANDTL|             STANDARD_AIR|
+------------------------------------------------------------------------------+
-- Fluid properties:
+------------------------------------------------------------------------------+
|                  Name|    Dim. value|    Ref. value|      Unit|Non-dim. value|
+------------------------------------------------------------------------------+
|        Ref. Viscosity|     3.737e-07|             1|lbf.s/ft^2|     3.737e-07|
|      Sutherland Temp.|        518.67|             1|         R|        518.67|
|     Sutherland Const.|        198.72|             1|         R|        198.72|
+------------------------------------------------------------------------------+
|        Prandtl (Lam.)|             -|             -|         -|          0.72|
|       Prandtl (Turb.)|             -|             -|         -|           0.9|
+------------------------------------------------------------------------------+
|          Gas Constant|       1716.49|             1|lbf.ft/slug.R|       1716.49|
|      Spec. Heat Ratio|             -|             -|         -|           1.4|
+------------------------------------------------------------------------------+
-- Initial and free-stream conditions:
+------------------------------------------------------------------------------+
|                  Name|    Dim. value|    Ref. value|      Unit|Non-dim. value|
+------------------------------------------------------------------------------+
|       Static Pressure|       2116.19|             1|       psf|       2116.19|
|               Density|   0.000742687|             1| slug/ft^3|   0.000742687|
|           Temperature|          1660|             1|         R|          1660|
|          Total Energy|   7.30294e+06|             1|  ft^2/s^2|   7.30294e+06|
|            Velocity-X|       599.184|             1|      ft/s|       599.184|
|            Velocity-Y|             0|             1|      ft/s|             0|
|    Velocity Magnitude|       599.184|             1|      ft/s|       599.184|
+------------------------------------------------------------------------------+
|             Viscosity|   8.25829e-07|             1|lbf.s/ft^2|   8.25829e-07|
|          Conductivity|             -|             1|lbf/ft.s.R|             -|
+------------------------------------------------------------------------------+
|           Mach Number|             -|             -|         -|           0.3|
|       Reynolds Number|             -|             -|         -|         89810|
+------------------------------------------------------------------------------+
Initialize Jacobian structure (Navier-Stokes). MG level: 0.

------------------- Numerics Preprocessing ( Zone 0 ) -------------------

----------------- Integration Preprocessing ( Zone 0 ) ------------------

------------------- Iteration Preprocessing ( Zone 0 ) ------------------
Euler/Navier-Stokes/RANS fluid iteration.

------------------------------ Begin Solver -----------------------------

Simulation Run using the Single-zone Driver
WARNING: SU2 was not compiled for an AVX-capable architecture. Performance could be better,
         see https://su2code.github.io/docs_v7/Build-SU2-Linux-MacOS/#compiler-optimizations
+-----------------------------------------------------------------------------+
|  Inner_Iter|   Time(sec)|    rms[Rho]|   rms[RhoU]|   rms[RhoV]|   rms[RhoE]|
+-----------------------------------------------------------------------------+
|           0|  7.3300e-01|   -4.943091|   -5.358056|  -15.247859|    2.063925|
|           1|  6.4050e-01|   -4.925217|   -1.069134|   -1.695156|    2.079443|
|           2|  6.1900e-01|   -5.039005|   -1.073312|   -1.525450|    2.000622|
|           3|  6.2050e-01|   -5.115353|   -1.098411|   -1.443391|    1.918371|
|           4|  6.2780e-01|   -5.120170|   -1.138151|   -1.436032|    1.901926|
|           5|  6.4317e-01|   -5.114920|   -1.186786|   -1.477172|    1.900790|
|           6|  6.6500e-01|   -5.137375|   -1.247467|   -1.531318|    1.876359|
|           7|  6.9700e-01|   -5.195921|   -1.322675|   -1.579845|    1.819071|
|           8|  7.3267e-01|   -5.276676|   -1.403437|   -1.639277|    1.743197|
|           9|  7.7790e-01|   -5.298538|   -1.493825|   -1.717470|    1.719889|
|          10|  8.3000e-01|   -5.317195|   -1.573850|   -1.809270|    1.697521|
|          11|  8.9325e-01|   -5.385227|   -1.644165|   -1.899092|    1.623801|
|          12|  9.6254e-01|   -5.438336|   -1.740587|   -1.972556|    1.567026|
|          13|  1.0389e+00|   -5.486334|   -1.822060|   -2.046284|    1.518048|
|          14|  1.1291e+00|   -5.544976|   -1.912561|   -2.135607|    1.461337|
|          15|  1.2353e+00|   -5.601157|   -1.995139|   -2.246576|    1.406992|
|          16|  1.3482e+00|   -5.648971|   -2.060919|   -2.337152|    1.358934|
|          17|  1.4496e+00|   -5.699129|   -2.123637|   -2.438131|    1.302860|
|          18|  1.5443e+00|   -5.766057|   -2.170324|   -2.527192|    1.236940|
|          19|  1.6319e+00|   -5.821264|   -2.201544|   -2.575308|    1.186660|
|          20|  1.6993e+00|   -5.839492|   -2.235734|   -2.617075|    1.174608|
|          21|  1.7606e+00|   -5.840369|   -2.258317|   -2.677340|    1.178906|
|          22|  1.8151e+00|   -5.849593|   -2.277463|   -2.721415|    1.174203|
|          23|  1.8651e+00|   -5.865336|   -2.313616|   -2.755037|    1.159845|
|          24|  1.9143e+00|   -5.905970|   -2.377304|   -2.751403|    1.116174|
|          25|  1.9608e+00|   -5.959789|   -2.452449|   -2.782423|    1.055736|
|          26|  2.0046e+00|   -5.996109|   -2.522662|   -2.801063|    1.012270|
|          27|  2.0444e+00|   -6.079945|   -2.551112|   -2.864216|    0.924056|
|          28|  2.0797e+00|   -6.049326|   -2.540739|   -2.844236|    0.956353|
|          29|  2.1025e+00|   -6.057628|   -2.529995|   -2.874337|    0.950768|
|          30|  2.1255e+00|   -6.057833|   -2.519816|   -2.884769|    0.951893|
|          31|  2.1479e+00|   -6.079597|   -2.519194|   -2.918688|    0.931645|
|          32|  2.1699e+00|   -6.090666|   -2.513701|   -2.927456|    0.919951|
|          33|  2.1902e+00|   -6.101322|   -2.514301|   -2.932726|    0.907597|
|          34|  2.2085e+00|   -6.101240|   -2.520672|   -2.920074|    0.906414|
|          35|  2.2235e+00|   -6.134963|   -2.542411|   -2.943447|    0.871260|
|          36|  2.2390e+00|   -6.180573|   -2.566432|   -2.960102|    0.822306|
|          37|  2.2525e+00|   -6.203303|   -2.605105|   -2.963446|    0.798035|
|          38|  2.2640e+00|   -6.231791|   -2.647122|   -2.975265|    0.766786|
|          39|  2.2757e+00|   -6.229768|   -2.685107|   -2.967555|    0.767751|
|          40|  2.2852e+00|   -6.245776|   -2.711671|   -2.976637|    0.749831|
|          41|  2.2924e+00|   -6.249277|   -2.733750|   -2.971463|    0.746889|
|          42|  2.2987e+00|   -6.238216|   -2.736785|   -2.958876|    0.760577|
|          43|  2.3068e+00|   -6.232604|   -2.739688|   -2.963096|    0.766655|
|          44|  2.3163e+00|   -6.310757|   -2.734813|   -3.003582|    0.687702|
|          45|  2.3233e+00|   -6.305748|   -2.735911|   -2.989923|    0.696688|
|          46|  2.3317e+00|   -6.313382|   -2.740315|   -2.987182|    0.689637|
|          47|  2.3411e+00|   -6.302382|   -2.741581|   -2.984621|    0.702964|
|          48|  2.3522e+00|   -6.299546|   -2.743362|   -2.980096|    0.707643|
|          49|  2.3609e+00|   -6.322674|   -2.750036|   -2.984508|    0.683952|
|          50|  2.3701e+00|   -6.336009|   -2.758427|   -2.981808|    0.672480|
|          51|  2.3782e+00|   -6.340980|   -2.759344|   -2.983613|    0.667641|
|          52|  2.3870e+00|   -6.284520|   -2.752574|   -2.964144|    0.724447|
|          53|  2.3961e+00|   -6.328239|   -2.746276|   -2.979268|    0.681423|
|          54|  2.4043e+00|   -6.336611|   -2.753983|   -2.984914|    0.675865|
|          55|  2.4124e+00|   -6.345876|   -2.756068|   -2.988263|    0.667092|
|          56|  2.4191e+00|   -6.313409|   -2.752412|   -2.968621|    0.701307|
|          57|  2.4240e+00|   -6.343586|   -2.748591|   -2.992228|    0.672263|
|          58|  2.4319e+00|   -6.363267|   -2.745838|   -2.998312|    0.652034|
|          59|  2.4419e+00|   -6.384903|   -2.749056|   -3.012456|    0.631740|
|          60|  2.4503e+00|   -6.358371|   -2.746978|   -3.005972|    0.658550|
|          61|  2.4579e+00|   -6.353447|   -2.747516|   -3.003720|    0.663536|
|          62|  2.4650e+00|   -6.358268|   -2.749717|   -3.011932|    0.659529|
|          63|  2.4720e+00|   -6.335598|   -2.751569|   -2.999605|    0.681834|
|          64|  2.4779e+00|   -6.299860|   -2.752933|   -2.982090|    0.717543|
|          65|  2.4834e+00|   -6.334132|   -2.755051|   -3.010165|    0.684078|
|          66|  2.4886e+00|   -6.285778|   -2.755571|   -2.973864|    0.730418|
|          67|  2.4938e+00|   -6.344540|   -2.755536|   -3.012267|    0.672693|
|          68|  2.4997e+00|   -6.402846|   -2.765126|   -3.037992|    0.613014|
|          69|  2.5045e+00|   -6.405037|   -2.765636|   -3.043694|    0.609764|
|          70|  2.5095e+00|   -6.392332|   -2.763245|   -3.031038|    0.623718|
|          71|  2.5143e+00|   -6.416062|   -2.761045|   -3.045515|    0.596554|
|          72|  2.5192e+00|   -6.412941|   -2.757272|   -3.043881|    0.601728|
|          73|  2.5234e+00|   -6.414200|   -2.759432|   -3.050483|    0.596894|
|          74|  2.5283e+00|   -6.408708|   -2.756087|   -3.046906|    0.604668|
|          75|  2.5335e+00|   -6.440323|   -2.756342|   -3.059599|    0.573328|
|          76|  2.5369e+00|   -6.450444|   -2.754698|   -3.071395|    0.564546|
|          77|  2.5409e+00|   -6.474960|   -2.753694|   -3.080327|    0.540583|
|          78|  2.5452e+00|   -6.493292|   -2.754609|   -3.085370|    0.521846|
|          79|  2.5473e+00|   -6.456777|   -2.757521|   -3.077537|    0.559039|
|          80|  2.5504e+00|   -6.449831|   -2.760471|   -3.076775|    0.565977|
|          81|  2.5543e+00|   -6.481759|   -2.766317|   -3.094169|    0.534826|
|          82|  2.5583e+00|   -6.456812|   -2.767165|   -3.084314|    0.560050|
|          83|  2.5621e+00|   -6.472599|   -2.772381|   -3.092304|    0.545527|
|          84|  2.5659e+00|   -6.445360|   -2.775881|   -3.083832|    0.573570|
|          85|  2.5697e+00|   -6.450004|   -2.777951|   -3.086408|    0.565276|
|          86|  2.5735e+00|   -6.473758|   -2.782997|   -3.099468|    0.543810|
|          87|  2.5772e+00|   -6.477620|   -2.787515|   -3.099825|    0.540692|
|          88|  2.5808e+00|   -6.485063|   -2.787435|   -3.106040|    0.534287|
|          89|  2.5848e+00|   -6.467956|   -2.790741|   -3.100676|    0.549246|
|          90|  2.5885e+00|   -6.466326|   -2.788979|   -3.097807|    0.552480|
|          91|  2.5920e+00|   -6.365692|   -2.787535|   -3.055017|    0.650780|
|          92|  2.5956e+00|   -6.416097|   -2.777549|   -3.076939|    0.600552|
|          93|  2.5989e+00|   -6.416974|   -2.785298|   -3.081337|    0.597818|
|          94|  2.6022e+00|   -6.404752|   -2.785489|   -3.072366|    0.611126|
|          95|  2.6062e+00|   -6.460323|   -2.785972|   -3.095646|    0.555647|
|          96|  2.6106e+00|   -6.431035|   -2.780365|   -3.081728|    0.585390|
|          97|  2.6154e+00|   -6.454806|   -2.778219|   -3.091562|    0.562849|
|          98|  2.6200e+00|   -6.454300|   -2.774233|   -3.085179|    0.565235|
|          99|  2.6238e+00|   -6.451373|   -2.781215|   -3.087153|    0.567036|
|         100|  2.6253e+00|   -6.444438|   -2.779063|   -3.087027|    0.572663|
|         101|  2.6288e+00|   -6.460124|   -2.781690|   -3.092426|    0.556688|
|         102|  2.6328e+00|   -6.471807|   -2.784218|   -3.094652|    0.542984|
|         103|  2.6361e+00|   -6.458869|   -2.782215|   -3.086533|    0.557360|
|         104|  2.6380e+00|   -6.381904|   -2.780767|   -3.042400|    0.631869|
|         105|  2.6399e+00|   -6.452176|   -2.782666|   -3.082855|    0.560336|
|         106|  2.6417e+00|   -6.390733|   -2.786519|   -3.051644|    0.622920|
|         107|  2.6437e+00|   -6.426083|   -2.790601|   -3.069247|    0.584004|
|         108|  2.6457e+00|   -6.418766|   -2.792090|   -3.060329|    0.591062|
|         109|  2.6479e+00|   -6.427587|   -2.788264|   -3.063705|    0.580871|
|         110|  2.6497e+00|   -6.482718|   -2.793926|   -3.074117|    0.524887|
|         111|  2.6516e+00|   -6.430154|   -2.797425|   -3.051347|    0.577326|
|         112|  2.6534e+00|   -6.462164|   -2.796173|   -3.064243|    0.544873|
|         113|  2.6552e+00|   -6.457072|   -2.797486|   -3.058562|    0.549846|
|         114|  2.6563e+00|   -6.421342|   -2.794868|   -3.044879|    0.586344|
|         115|  2.6575e+00|   -6.453381|   -2.793239|   -3.050852|    0.553613|
|         116|  2.6585e+00|   -6.431663|   -2.789185|   -3.037548|    0.576695|
|         117|  2.6596e+00|   -6.421309|   -2.785457|   -3.029873|    0.586824|
|         118|  2.6607e+00|   -6.431689|   -2.783312|   -3.025849|    0.576230|
|         119|  2.6617e+00|   -6.437135|   -2.780782|   -3.021246|    0.571194|
|         120|  2.6627e+00|   -6.438380|   -2.778351|   -3.020872|    0.569714|
|         121|  2.6637e+00|   -6.434533|   -2.776346|   -3.013679|    0.572391|
|         122|  2.6636e+00|   -6.446392|   -2.775288|   -3.015077|    0.561091|
|         123|  2.6651e+00|   -6.453965|   -2.774999|   -3.010562|    0.553873|
|         124|  2.6663e+00|   -6.446274|   -2.770493|   -3.008136|    0.561274|
|         125|  2.6676e+00|   -6.436470|   -2.769184|   -3.002149|    0.571371|
|         126|  2.6689e+00|   -6.441551|   -2.766668|   -2.996069|    0.567191|
|         127|  2.6702e+00|   -6.438987|   -2.764267|   -2.991907|    0.568475|
|         128|  2.6714e+00|   -6.444742|   -2.765351|   -2.993176|    0.563444|
|         129|  2.6727e+00|   -6.437571|   -2.762981|   -2.983567|    0.571442|
|         130|  2.6742e+00|   -6.412124|   -2.759899|   -2.967741|    0.597278|
|         131|  2.6754e+00|   -6.390157|   -2.758527|   -2.960247|    0.618874|
|         132|  2.6766e+00|   -6.416097|   -2.757330|   -2.968084|    0.593101|
|         133|  2.6778e+00|   -6.406981|   -2.755225|   -2.962482|    0.603653|
|         134|  2.6789e+00|   -6.391630|   -2.752810|   -2.948847|    0.618425|
|         135|  2.6800e+00|   -6.381022|   -2.748615|   -2.942578|    0.628351|
|         136|  2.6812e+00|   -6.349039|   -2.747735|   -2.932599|    0.661389|
|         137|  2.6770e+00|   -6.395668|   -2.749060|   -2.944058|    0.615225|
|         138|  2.6698e+00|   -6.476280|   -2.755494|   -2.945865|    0.537816|
|         139|  2.6640e+00|   -6.577454|   -2.760939|   -2.951647|    0.438728|
|         140|  2.6596e+00|   -6.500154|   -2.759072|   -2.942921|    0.512308|
|         141|  2.6571e+00|   -6.500137|   -2.755803|   -2.946374|    0.512844|
|         142|  2.6509e+00|   -6.526155|   -2.758170|   -2.951754|    0.486993|
|         143|  2.6459e+00|   -6.569330|   -2.759937|   -2.944959|    0.445958|
|         144|  2.6424e+00|   -6.567048|   -2.758589|   -2.947230|    0.447435|
|         145|  2.6355e+00|   -6.532117|   -2.756670|   -2.941957|    0.481908|
|         146|  2.6260e+00|   -6.597784|   -2.758811|   -2.945042|    0.418398|
|         147|  2.6178e+00|   -6.696674|   -2.761795|   -2.946047|    0.322043|
|         148|  2.6108e+00|   -6.680428|   -2.762279|   -2.947817|    0.339508|
|         149|  2.6046e+00|   -6.628195|   -2.761130|   -2.948213|    0.390411|
|         150|  2.5998e+00|   -6.597503|   -2.759678|   -2.940372|    0.417289|
|         151|  2.5920e+00|   -6.543441|   -2.755455|   -2.936456|    0.470400|
|         152|  2.5822e+00|   -6.641009|   -2.759398|   -2.941886|    0.376467|
|         153|  2.5736e+00|   -6.750342|   -2.759899|   -2.942902|    0.271222|
|         154|  2.5657e+00|   -6.754833|   -2.760511|   -2.941838|    0.266937|
|         155|  2.5590e+00|   -6.730134|   -2.759796|   -2.943535|    0.290777|
|         156|  2.5527e+00|   -6.680120|   -2.758188|   -2.942806|    0.337528|
|         157|  2.5479e+00|   -6.688960|   -2.756971|   -2.941828|    0.328307|
|         158|  2.5445e+00|   -6.584134|   -2.753847|   -2.934589|    0.430771|
|         159|  2.5377e+00|   -6.562755|   -2.750500|   -2.930447|    0.451206|
|         160|  2.5290e+00|   -6.602125|   -2.752925|   -2.926769|    0.411538|
|         161|  2.5189e+00|   -6.724498|   -2.755899|   -2.927221|    0.293477|
|         162|  2.5095e+00|   -6.820652|   -2.756552|   -2.929508|    0.201734|
|         163|  2.5012e+00|   -6.840750|   -2.756969|   -2.933427|    0.181975|
|         164|  2.4937e+00|   -6.835281|   -2.756365|   -2.938140|    0.189033|
|         165|  2.4868e+00|   -6.738248|   -2.755424|   -2.937300|    0.281593|
|         166|  2.4809e+00|   -6.704242|   -2.754369|   -2.933263|    0.314475|
|         167|  2.4762e+00|   -6.680310|   -2.752176|   -2.933866|    0.336585|
|         168|  2.4723e+00|   -6.598369|   -2.750490|   -2.927218|    0.416998|
|         169|  2.4660e+00|   -6.566873|   -2.748158|   -2.924790|    0.447481|
|         170|  2.4579e+00|   -6.674273|   -2.749376|   -2.927844|    0.342313|
|         171|  2.4483e+00|   -6.780777|   -2.751458|   -2.925147|    0.239231|
|         172|  2.4396e+00|   -6.881399|   -2.751572|   -2.925608|    0.145830|
|         173|  2.4315e+00|   -6.862201|   -2.751708|   -2.925049|    0.163335|
|         174|  2.4241e+00|   -6.918072|   -2.752245|   -2.926226|    0.110681|
|         175|  2.4177e+00|   -6.845622|   -2.752110|   -2.928166|    0.178032|
|         176|  2.4120e+00|   -6.739469|   -2.750767|   -2.927869|    0.279333|
|         177|  2.4043e+00|   -6.723835|   -2.749351|   -2.926757|    0.293576|
|         178|  2.3953e+00|   -6.798952|   -2.749087|   -2.927975|    0.221157|
|         179|  2.3857e+00|   -6.906172|   -2.749249|   -2.928099|    0.120229|
|         180|  2.3764e+00|   -7.005428|   -2.748877|   -2.927603|    0.026615|
|         181|  2.3674e+00|   -7.013281|   -2.748821|   -2.927349|    0.022448|
|         182|  2.3590e+00|   -7.019517|   -2.749371|   -2.927933|    0.017824|
|         183|  2.3513e+00|   -6.993967|   -2.750114|   -2.929453|    0.042092|
|         184|  2.3442e+00|   -6.989515|   -2.750467|   -2.930947|    0.044880|
|         185|  2.3381e+00|   -6.896970|   -2.750647|   -2.930642|    0.129759|
|         186|  2.3326e+00|   -6.858410|   -2.750318|   -2.927381|    0.166589|
|         187|  2.3276e+00|   -6.717780|   -2.748308|   -2.919571|    0.296198|
|         188|  2.3207e+00|   -6.711898|   -2.746578|   -2.921128|    0.303802|
|         189|  2.3127e+00|   -6.809303|   -2.748631|   -2.920821|    0.209954|
|         190|  2.3040e+00|   -6.923783|   -2.749170|   -2.920337|    0.103121|
|         191|  2.2956e+00|   -7.005897|   -2.748976|   -2.919794|    0.027693|
|         192|  2.2876e+00|   -7.008406|   -2.749026|   -2.919322|    0.028579|
|         193|  2.2802e+00|   -7.018799|   -2.749362|   -2.920193|    0.017505|
|         194|  2.2733e+00|   -6.985774|   -2.749168|   -2.921678|    0.047509|
|         195|  2.2669e+00|   -6.934011|   -2.748742|   -2.922970|    0.094696|
|         196|  2.2614e+00|   -6.877796|   -2.747741|   -2.923655|    0.147092|
|         197|  2.2565e+00|   -6.833955|   -2.746881|   -2.922935|    0.186987|
|         198|  2.2522e+00|   -6.751638|   -2.745986|   -2.920524|    0.265259|
|         199|  2.2463e+00|   -6.704126|   -2.744888|   -2.918551|    0.311454|
|         200|  2.2391e+00|   -6.790117|   -2.745229|   -2.917641|    0.228181|
|         201|  2.2312e+00|   -6.925243|   -2.745144|   -2.917733|    0.097530|
|         202|  2.2237e+00|   -7.000646|   -2.744866|   -2.917215|    0.027855|
|         203|  2.2167e+00|   -7.005113|   -2.744756|   -2.917921|    0.024213|
|         204|  2.2100e+00|   -6.991118|   -2.745067|   -2.919434|    0.039399|
|         205|  2.2038e+00|   -6.969911|   -2.745340|   -2.920290|    0.059331|
|         206|  2.1984e+00|   -6.957049|   -2.745445|   -2.920828|    0.071978|
|         207|  2.1935e+00|   -6.895063|   -2.745221|   -2.920073|    0.129431|
|         208|  2.1891e+00|   -6.832205|   -2.744603|   -2.919919|    0.189899|
|         209|  2.1856e+00|   -6.789356|   -2.743488|   -2.918141|    0.229918|
|         210|  2.1826e+00|   -6.712918|   -2.742592|   -2.915094|    0.303538|
|         211|  2.1779e+00|   -6.690708|   -2.741006|   -2.912322|    0.323636|
|         212|  2.1718e+00|   -6.778665|   -2.741922|   -2.912854|    0.239092|
|         213|  2.1650e+00|   -6.864076|   -2.742428|   -2.912167|    0.156035|
|         214|  2.1586e+00|   -6.972620|   -2.743189|   -2.911363|    0.054027|
|         215|  2.1527e+00|   -6.889133|   -2.743128|   -2.907457|    0.130692|
|         216|  2.1473e+00|   -6.939064|   -2.742828|   -2.910023|    0.084504|
|         217|  2.1424e+00|   -6.884909|   -2.742466|   -2.910989|    0.136058|
|         218|  2.1381e+00|   -6.858177|   -2.742367|   -2.911054|    0.161121|
|         219|  2.1344e+00|   -6.850805|   -2.741568|   -2.911248|    0.167947|
|         220|  2.1321e+00|   -6.761907|   -2.740841|   -2.909021|    0.255027|
|         221|  2.1274e+00|   -6.716076|   -2.739351|   -2.908984|    0.298486|
|         222|  2.1216e+00|   -6.770428|   -2.739114|   -2.906646|    0.245459|
|         223|  2.1150e+00|   -6.855423|   -2.739199|   -2.903905|    0.162704|
|         224|  2.1087e+00|   -6.942221|   -2.738695|   -2.901501|    0.079343|
|         225|  2.1029e+00|   -6.953886|   -2.738492|   -2.901736|    0.068085|
|         226|  2.0975e+00|   -6.963965|   -2.738815|   -2.903063|    0.059404|
|         227|  2.0927e+00|   -6.919534|   -2.739101|   -2.905527|    0.102889|
|         228|  2.0883e+00|   -6.857848|   -2.739052|   -2.908103|    0.162801|
|         229|  2.0844e+00|   -6.817622|   -2.738624|   -2.907798|    0.201628|
|         230|  2.0811e+00|   -6.794345|   -2.737568|   -2.908005|    0.224348|
|         231|  2.0784e+00|   -6.725833|   -2.736387|   -2.904580|    0.289149|
|         232|  2.0764e+00|   -6.703819|   -2.735223|   -2.903358|    0.309875|
|         233|  2.0728e+00|   -6.629870|   -2.734141|   -2.899409|    0.382890|
|         234|  2.0679e+00|   -6.708104|   -2.734746|   -2.899409|    0.305974|
|         235|  2.0636e+00|   -6.831940|   -2.735132|   -2.900639|    0.184404|
|         236|  2.0598e+00|   -6.804441|   -2.735536|   -2.899895|    0.211661|
|         237|  2.0566e+00|   -6.756666|   -2.734843|   -2.897276|    0.258912|
|         238|  2.0540e+00|   -6.711031|   -2.733477|   -2.895669|    0.302263|
|         239|  2.0500e+00|   -6.671201|   -2.731797|   -2.897523|    0.339505|
|         240|  2.0449e+00|   -6.755667|   -2.732706|   -2.896686|    0.257935|
|         241|  2.0391e+00|   -6.862095|   -2.732741|   -2.895774|    0.154384|
|         242|  2.0336e+00|   -6.945446|   -2.732489|   -2.894527|    0.075265|
|         243|  2.0285e+00|   -6.966755|   -2.732517|   -2.893941|    0.054309|
|         244|  2.0237e+00|   -6.976898|   -2.732826|   -2.894947|    0.044585|
|         245|  2.0193e+00|   -6.945789|   -2.732881|   -2.897013|    0.076344|
|         246|  2.0155e+00|   -6.885016|   -2.732639|   -2.898169|    0.134682|
|         247|  2.0106e+00|   -6.832606|   -2.731990|   -2.898186|    0.184076|
|         248|  2.0060e+00|   -6.907305|   -2.731701|   -2.897779|    0.111661|
|         249|  2.0008e+00|   -6.883918|   -2.731244|   -2.898214|    0.132672|
|         250|  1.9951e+00|   -6.955998|   -2.731114|   -2.898976|    0.064558|
+-----------------------------------------------------------------------+
|        File Writing Summary       |              Filename             |
+-----------------------------------------------------------------------+
|SU2 binary restart                 |restart_flow.dat                   |
|Paraview                           |flow.vtu                           |
|CSV file                           |surface_flow.csv                   |
+-----------------------------------------------------------------------+
+-----------------------------------------------------------------------------+
|  Inner_Iter|   Time(sec)|    rms[Rho]|   rms[RhoU]|   rms[RhoV]|   rms[RhoE]|
+-----------------------------------------------------------------------------+
|         251|  1.9905e+00|   -7.023579|   -2.730950|   -2.899266|   -0.000184|
|         252|  1.9852e+00|   -7.015806|   -2.730999|   -2.899867|    0.007192|
|         253|  1.9802e+00|   -7.010438|   -2.731311|   -2.900578|    0.012410|
|         254|  1.9747e+00|   -6.997656|   -2.731685|   -2.901182|    0.025779|
|         255|  1.9688e+00|   -7.032502|   -2.731676|   -2.901406|   -0.007203|
|         256|  1.9633e+00|   -7.050176|   -2.731570|   -2.901377|   -0.023783|
|         257|  1.9579e+00|   -7.053192|   -2.731475|   -2.901685|   -0.027093|
|         258|  1.9527e+00|   -7.051157|   -2.731444|   -2.901963|   -0.023543|
|         259|  1.9477e+00|   -7.044108|   -2.731562|   -2.902106|   -0.016256|
|         260|  1.9429e+00|   -7.037466|   -2.731753|   -2.902248|   -0.010222|
|         261|  1.9383e+00|   -7.022750|   -2.731974|   -2.901643|    0.004236|
|         262|  1.9342e+00|   -7.009880|   -2.732174|   -2.900931|    0.015972|
|         263|  1.9293e+00|   -6.992122|   -2.732199|   -2.900353|    0.033772|
|         264|  1.9247e+00|   -7.018209|   -2.732242|   -2.899351|    0.009154|
|         265|  1.9196e+00|   -7.003447|   -2.732109|   -2.898307|    0.023329|
|         266|  1.9143e+00|   -7.038112|   -2.732034|   -2.897516|   -0.009778|
|         267|  1.9091e+00|   -7.056307|   -2.731936|   -2.896777|   -0.026953|
|         268|  1.9042e+00|   -7.054011|   -2.731866|   -2.896066|   -0.025200|
|         269|  1.8995e+00|   -7.047027|   -2.731813|   -2.895424|   -0.018848|
|         270|  1.8949e+00|   -7.037345|   -2.731761|   -2.894818|   -0.009277|
|         271|  1.8906e+00|   -7.037563|   -2.731735|   -2.895509|   -0.009791|
|         272|  1.8858e+00|   -7.011894|   -2.731762|   -2.896670|    0.015367|
|         273|  1.8807e+00|   -7.035062|   -2.731853|   -2.897171|   -0.005981|
|         274|  1.8755e+00|   -7.058612|   -2.731821|   -2.897506|   -0.028564|
|         275|  1.8702e+00|   -7.069961|   -2.731749|   -2.897659|   -0.038867|
|         276|  1.8649e+00|   -7.077042|   -2.731695|   -2.897704|   -0.045914|
|         277|  1.8595e+00|   -7.078951|   -2.731659|   -2.897737|   -0.047957|
|         278|  1.8543e+00|   -7.079649|   -2.731616|   -2.897749|   -0.048815|
|         279|  1.8492e+00|   -7.079608|   -2.731563|   -2.897763|   -0.048747|
|         280|  1.8439e+00|   -7.081091|   -2.731508|   -2.897773|   -0.049306|
|         281|  1.8387e+00|   -7.082711|   -2.731477|   -2.897807|   -0.051021|
|         282|  1.8334e+00|   -7.083388|   -2.731459|   -2.897814|   -0.051580|
|         283|  1.8281e+00|   -7.083637|   -2.731444|   -2.897822|   -0.051850|
|         284|  1.8229e+00|   -7.083858|   -2.731430|   -2.897828|   -0.052037|
|         285|  1.8177e+00|   -7.084038|   -2.731418|   -2.897832|   -0.052193|
|         286|  1.8125e+00|   -7.084202|   -2.731406|   -2.897834|   -0.052360|
|         287|  1.8074e+00|   -7.084339|   -2.731395|   -2.897835|   -0.052501|
|         288|  1.8024e+00|   -7.084460|   -2.731383|   -2.897834|   -0.052622|
|         289|  1.7975e+00|   -7.084576|   -2.731370|   -2.897833|   -0.052735|
|         290|  1.7925e+00|   -7.084667|   -2.731354|   -2.897831|   -0.052821|
|         291|  1.7875e+00|   -7.084736|   -2.731343|   -2.897829|   -0.052903|
|         292|  1.7826e+00|   -7.084782|   -2.731333|   -2.897826|   -0.052973|
|         293|  1.7777e+00|   -7.084805|   -2.731322|   -2.897823|   -0.053035|
|         294|  1.7728e+00|   -7.084889|   -2.731312|   -2.897820|   -0.053089|
|         295|  1.7679e+00|   -7.084961|   -2.731302|   -2.897817|   -0.053137|
|         296|  1.7631e+00|   -7.085025|   -2.731292|   -2.897814|   -0.053178|
|         297|  1.7583e+00|   -7.085087|   -2.731283|   -2.897811|   -0.053215|
|         298|  1.7535e+00|   -7.085149|   -2.731273|   -2.897807|   -0.053251|
|         299|  1.7490e+00|   -7.085201|   -2.731264|   -2.897803|   -0.053282|
|         300|  1.7444e+00|   -7.085243|   -2.731254|   -2.897798|   -0.053297|
|         301|  1.7398e+00|   -7.085279|   -2.731242|   -2.897790|   -0.053307|
|         302|  1.7353e+00|   -7.085295|   -2.731229|   -2.897777|   -0.053300|
|         303|  1.7307e+00|   -7.085327|   -2.731222|   -2.897768|   -0.053355|
|         304|  1.7261e+00|   -7.085316|   -2.731216|   -2.897759|   -0.053385|
|         305|  1.7215e+00|   -7.085241|   -2.731210|   -2.897748|   -0.053371|
|         306|  1.7170e+00|   -7.085038|   -2.731205|   -2.897735|   -0.053258|
|         307|  1.7125e+00|   -7.084647|   -2.731200|   -2.897720|   -0.052987|
|         308|  1.7080e+00|   -7.084412|   -2.731195|   -2.897708|   -0.052828|
|         309|  1.7036e+00|   -7.084604|   -2.731191|   -2.897701|   -0.052998|
|         310|  1.6993e+00|   -7.084783|   -2.731186|   -2.897696|   -0.053148|
|         311|  1.6950e+00|   -7.085427|   -2.731181|   -2.897700|   -0.053603|
|         312|  1.6908e+00|   -7.085461|   -2.731174|   -2.897703|   -0.053497|
|         313|  1.6865e+00|   -7.085306|   -2.731169|   -2.897694|   -0.053294|
|         314|  1.6825e+00|   -7.085300|   -2.731161|   -2.897692|   -0.053363|
|         315|  1.6786e+00|   -7.084785|   -2.731164|   -2.897661|   -0.052677|
|         316|  1.6744e+00|   -7.085373|   -2.731151|   -2.897687|   -0.053524|
|         317|  1.6702e+00|   -7.085585|   -2.731147|   -2.897679|   -0.053654|
|         318|  1.6660e+00|   -7.085796|   -2.731144|   -2.897672|   -0.053782|
|         319|  1.6618e+00|   -7.085800|   -2.731141|   -2.897667|   -0.053785|
|         320|  1.6576e+00|   -7.085821|   -2.731138|   -2.897660|   -0.053787|
|         321|  1.6536e+00|   -7.085781|   -2.731135|   -2.897648|   -0.053713|
|         322|  1.6496e+00|   -7.085746|   -2.731132|   -2.897641|   -0.053704|
|         323|  1.6457e+00|   -7.085631|   -2.731129|   -2.897630|   -0.053575|
|         324|  1.6417e+00|   -7.085539|   -2.731126|   -2.897619|   -0.053526|
|         325|  1.6377e+00|   -7.085606|   -2.731124|   -2.897611|   -0.053627|
|         326|  1.6337e+00|   -7.085635|   -2.731123|   -2.897601|   -0.053665|
|         327|  1.6297e+00|   -7.085604|   -2.731122|   -2.897591|   -0.053635|
|         328|  1.6258e+00|   -7.085365|   -2.731120|   -2.897581|   -0.053439|
|         329|  1.6219e+00|   -7.084936|   -2.731118|   -2.897569|   -0.053109|
|         330|  1.6181e+00|   -7.084910|   -2.731116|   -2.897556|   -0.053105|
|         331|  1.6144e+00|   -7.085094|   -2.731115|   -2.897540|   -0.053224|
|         332|  1.6107e+00|   -7.085133|   -2.731118|   -2.897526|   -0.053211|
|         333|  1.6070e+00|   -7.083832|   -2.731116|   -2.897534|   -0.052419|
|         334|  1.6034e+00|   -7.083328|   -2.731125|   -2.897447|   -0.051334|
|         335|  1.5999e+00|   -7.081894|   -2.731116|   -2.897497|   -0.050793|
|         336|  1.5963e+00|   -7.082710|   -2.731130|   -2.897390|   -0.050526|
|         337|  1.5927e+00|   -7.084025|   -2.731126|   -2.897385|   -0.051918|
|         338|  1.5892e+00|   -7.081951|   -2.731117|   -2.897441|   -0.050780|
|         339|  1.5857e+00|   -7.084027|   -2.731131|   -2.897363|   -0.051823|
|         340|  1.5823e+00|   -7.083395|   -2.731134|   -2.897417|   -0.051912|
|         341|  1.5790e+00|   -7.083346|   -2.731160|   -2.897365|   -0.051219|
|         342|  1.5756e+00|   -7.080495|   -2.731176|   -2.897463|   -0.049436|
|         343|  1.5721e+00|   -7.082769|   -2.731193|   -2.897406|   -0.050912|
|         344|  1.5686e+00|   -7.083674|   -2.731186|   -2.897431|   -0.052048|
|         345|  1.5651e+00|   -7.084227|   -2.731185|   -2.897440|   -0.052602|
|         346|  1.5615e+00|   -7.084668|   -2.731186|   -2.897443|   -0.052982|
|         347|  1.5580e+00|   -7.085014|   -2.731188|   -2.897435|   -0.053186|
|         348|  1.5545e+00|   -7.085104|   -2.731188|   -2.897436|   -0.053284|
|         349|  1.5510e+00|   -7.085265|   -2.731188|   -2.897429|   -0.053355|
|         350|  1.5475e+00|   -7.085284|   -2.731187|   -2.897432|   -0.053427|
|         351|  1.5441e+00|   -7.085416|   -2.731189|   -2.897421|   -0.053450|
|         352|  1.5407e+00|   -7.085350|   -2.731187|   -2.897424|   -0.053481|
|         353|  1.5373e+00|   -7.085484|   -2.731190|   -2.897409|   -0.053465|
|         354|  1.5339e+00|   -7.085322|   -2.731187|   -2.897415|   -0.053461|
|         355|  1.5305e+00|   -7.085481|   -2.731191|   -2.897392|   -0.053405|
|         356|  1.5272e+00|   -7.085202|   -2.731189|   -2.897403|   -0.053383|
|         357|  1.5238e+00|   -7.085390|   -2.731194|   -2.897371|   -0.053265|
|         358|  1.5205e+00|   -7.084991|   -2.731191|   -2.897389|   -0.053236|
|         359|  1.5172e+00|   -7.085246|   -2.731197|   -2.897347|   -0.053096|
|         360|  1.5140e+00|   -7.084789|   -2.731193|   -2.897371|   -0.053113|
|         361|  1.5107e+00|   -7.085201|   -2.731200|   -2.897325|   -0.053074|
|         362|  1.5074e+00|   -7.084759|   -2.731196|   -2.897348|   -0.053104|
|         363|  1.5042e+00|   -7.085275|   -2.731203|   -2.897301|   -0.053152|
|         364|  1.5010e+00|   -7.084810|   -2.731199|   -2.897321|   -0.053148|
|         365|  1.4978e+00|   -7.085297|   -2.731205|   -2.897274|   -0.053178|
|         366|  1.4947e+00|   -7.084821|   -2.731201|   -2.897293|   -0.053169|
|         367|  1.4915e+00|   -7.085297|   -2.731208|   -2.897245|   -0.053185|
|         368|  1.4884e+00|   -7.084829|   -2.731204|   -2.897267|   -0.053196|
|         369|  1.4853e+00|   -7.085331|   -2.731210|   -2.897221|   -0.053229|
|         370|  1.4822e+00|   -7.084843|   -2.731206|   -2.897245|   -0.053223|
|         371|  1.4791e+00|   -7.085326|   -2.731212|   -2.897200|   -0.053242|
|         372|  1.4760e+00|   -7.084805|   -2.731207|   -2.897223|   -0.053206|
|         373|  1.4730e+00|   -7.085261|   -2.731212|   -2.897178|   -0.053204|
|         374|  1.4699e+00|   -7.084720|   -2.731208|   -2.897201|   -0.053154|
|         375|  1.4669e+00|   -7.085163|   -2.731212|   -2.897156|   -0.053150|
|         376|  1.4639e+00|   -7.084620|   -2.731208|   -2.897177|   -0.053075|
|         377|  1.4609e+00|   -7.084825|   -2.731214|   -2.897122|   -0.052831|
|         378|  1.4579e+00|   -7.084158|   -2.731208|   -2.897142|   -0.052714|
|         379|  1.4550e+00|   -7.084643|   -2.731208|   -2.897107|   -0.052820|
|         380|  1.4520e+00|   -7.084004|   -2.731201|   -2.897138|   -0.052718|
|         381|  1.4491e+00|   -7.084393|   -2.731203|   -2.897099|   -0.052729|
|         382|  1.4462e+00|   -7.084099|   -2.731199|   -2.897115|   -0.052829|
|         383|  1.4433e+00|   -7.084200|   -2.731198|   -2.897080|   -0.052683|
|         384|  1.4404e+00|   -7.083929|   -2.731196|   -2.897086|   -0.052769|
|         385|  1.4376e+00|   -7.084260|   -2.731195|   -2.897050|   -0.052795|
|         386|  1.4347e+00|   -7.083954|   -2.731192|   -2.897064|   -0.052842|
|         387|  1.4319e+00|   -7.084399|   -2.731191|   -2.897029|   -0.052939|
|         388|  1.4291e+00|   -7.084091|   -2.731188|   -2.897047|   -0.052968|
|         389|  1.4263e+00|   -7.084565|   -2.731187|   -2.897014|   -0.053094|
|         390|  1.4235e+00|   -7.084319|   -2.731185|   -2.897032|   -0.053141|
|         391|  1.4207e+00|   -7.084821|   -2.731185|   -2.897001|   -0.053294|
|         392|  1.4179e+00|   -7.084652|   -2.731184|   -2.897018|   -0.053355|
|         393|  1.4152e+00|   -7.085121|   -2.731184|   -2.896990|   -0.053503|
|         394|  1.4124e+00|   -7.084973|   -2.731184|   -2.897008|   -0.053557|
|         395|  1.4097e+00|   -7.085397|   -2.731184|   -2.896983|   -0.053689|
|         396|  1.4070e+00|   -7.085244|   -2.731186|   -2.897000|   -0.053702|
|         397|  1.4043e+00|   -7.085628|   -2.731186|   -2.896977|   -0.053814|
|         398|  1.4016e+00|   -7.085429|   -2.731188|   -2.896991|   -0.053765|
|         399|  1.3990e+00|   -7.085781|   -2.731188|   -2.896970|   -0.053869|
|         400|  1.3963e+00|   -7.085582|   -2.731190|   -2.896981|   -0.053802|
|         401|  1.3936e+00|   -7.085890|   -2.731191|   -2.896965|   -0.053922|
|         402|  1.3910e+00|   -7.085719|   -2.731193|   -2.896970|   -0.053836|
|         403|  1.3884e+00|   -7.085889|   -2.731194|   -2.896959|   -0.053899|
|         404|  1.3858e+00|   -7.085764|   -2.731195|   -2.896959|   -0.053827|
|         405|  1.3832e+00|   -7.085830|   -2.731196|   -2.896950|   -0.053849|
|         406|  1.3806e+00|   -7.085813|   -2.731197|   -2.896945|   -0.053847|
|         407|  1.3781e+00|   -7.085853|   -2.731198|   -2.896937|   -0.053875|
|         408|  1.3755e+00|   -7.085869|   -2.731200|   -2.896929|   -0.053892|
|         409|  1.3730e+00|   -7.085866|   -2.731201|   -2.896921|   -0.053897|
|         410|  1.3705e+00|   -7.085849|   -2.731202|   -2.896913|   -0.053892|
|         411|  1.3679e+00|   -7.085837|   -2.731203|   -2.896905|   -0.053880|
|         412|  1.3654e+00|   -7.085826|   -2.731203|   -2.896896|   -0.053867|
|         413|  1.3629e+00|   -7.085808|   -2.731203|   -2.896886|   -0.053848|
|         414|  1.3605e+00|   -7.085781|   -2.731203|   -2.896876|   -0.053825|
|         415|  1.3580e+00|   -7.085747|   -2.731203|   -2.896866|   -0.053796|
|         416|  1.3555e+00|   -7.085712|   -2.731202|   -2.896856|   -0.053762|
|         417|  1.3531e+00|   -7.085699|   -2.731202|   -2.896846|   -0.053737|
|         418|  1.3507e+00|   -7.085615|   -2.731203|   -2.896837|   -0.053716|
|         419|  1.3482e+00|   -7.085504|   -2.731203|   -2.896828|   -0.053699|
|         420|  1.3458e+00|   -7.085437|   -2.731203|   -2.896819|   -0.053689|
|         421|  1.3435e+00|   -7.085425|   -2.731202|   -2.896810|   -0.053699|
|         422|  1.3411e+00|   -7.085429|   -2.731202|   -2.896802|   -0.053709|
|         423|  1.3387e+00|   -7.085427|   -2.731201|   -2.896794|   -0.053719|
|         424|  1.3363e+00|   -7.085414|   -2.731200|   -2.896787|   -0.053730|
|         425|  1.3339e+00|   -7.085422|   -2.731199|   -2.896780|   -0.053744|
|         426|  1.3316e+00|   -7.085445|   -2.731197|   -2.896773|   -0.053762|
|         427|  1.3292e+00|   -7.085491|   -2.731196|   -2.896768|   -0.053786|
|         428|  1.3269e+00|   -7.085533|   -2.731195|   -2.896764|   -0.053816|
|         429|  1.3246e+00|   -7.085570|   -2.731193|   -2.896760|   -0.053854|
|         430|  1.3223e+00|   -7.085610|   -2.731192|   -2.896758|   -0.053901|
|         431|  1.3200e+00|   -7.085653|   -2.731191|   -2.896757|   -0.053955|
|         432|  1.3177e+00|   -7.085694|   -2.731190|   -2.896757|   -0.054012|
|         433|  1.3154e+00|   -7.085734|   -2.731189|   -2.896757|   -0.054064|
|         434|  1.3131e+00|   -7.085761|   -2.731188|   -2.896758|   -0.054105|
|         435|  1.3109e+00|   -7.085771|   -2.731187|   -2.896759|   -0.054131|
|         436|  1.3086e+00|   -7.085766|   -2.731186|   -2.896760|   -0.054147|
|         437|  1.3064e+00|   -7.085753|   -2.731185|   -2.896760|   -0.054157|
|         438|  1.3041e+00|   -7.085736|   -2.731184|   -2.896760|   -0.054164|
|         439|  1.3019e+00|   -7.085718|   -2.731183|   -2.896760|   -0.054171|
|         440|  1.2997e+00|   -7.085757|   -2.731182|   -2.896759|   -0.054191|
|         441|  1.2975e+00|   -7.085828|   -2.731181|   -2.896758|   -0.054222|
|         442|  1.2953e+00|   -7.085907|   -2.731179|   -2.896756|   -0.054261|
|         443|  1.2932e+00|   -7.085972|   -2.731178|   -2.896754|   -0.054294|
|         444|  1.2910e+00|   -7.086018|   -2.731176|   -2.896752|   -0.054315|
|         445|  1.2888e+00|   -7.086062|   -2.731174|   -2.896750|   -0.054338|
|         446|  1.2867e+00|   -7.086107|   -2.731173|   -2.896747|   -0.054365|
|         447|  1.2845e+00|   -7.086154|   -2.731171|   -2.896744|   -0.054393|
|         448|  1.2824e+00|   -7.086191|   -2.731169|   -2.896742|   -0.054418|
|         449|  1.2803e+00|   -7.086224|   -2.731167|   -2.896738|   -0.054437|
|         450|  1.2782e+00|   -7.086245|   -2.731165|   -2.896735|   -0.054450|
|         451|  1.2761e+00|   -7.086257|   -2.731163|   -2.896732|   -0.054457|
|         452|  1.2740e+00|   -7.086265|   -2.731161|   -2.896730|   -0.054460|
|         453|  1.2720e+00|   -7.086268|   -2.731159|   -2.896727|   -0.054459|
|         454|  1.2699e+00|   -7.086273|   -2.731156|   -2.896724|   -0.054455|
|         455|  1.2678e+00|   -7.086278|   -2.731154|   -2.896721|   -0.054449|
|         456|  1.2658e+00|   -7.086278|   -2.731151|   -2.896718|   -0.054439|
|         457|  1.2638e+00|   -7.086276|   -2.731148|   -2.896714|   -0.054425|
|         458|  1.2617e+00|   -7.086259|   -2.731146|   -2.896706|   -0.054404|
|         459|  1.2597e+00|   -7.086203|   -2.731145|   -2.896694|   -0.054355|
|         460|  1.2577e+00|   -7.086084|   -2.731143|   -2.896682|   -0.054252|
|         461|  1.2557e+00|   -7.085910|   -2.731141|   -2.896670|   -0.054106|
|         462|  1.2537e+00|   -7.085750|   -2.731140|   -2.896658|   -0.053975|
|         463|  1.2517e+00|   -7.085735|   -2.731138|   -2.896650|   -0.053967|
|         464|  1.2498e+00|   -7.085795|   -2.731137|   -2.896643|   -0.054027|
|         465|  1.2478e+00|   -7.085811|   -2.731136|   -2.896636|   -0.054052|
|         466|  1.2459e+00|   -7.085797|   -2.731135|   -2.896629|   -0.054053|
|         467|  1.2439e+00|   -7.085871|   -2.731134|   -2.896624|   -0.054112|
|         468|  1.2420e+00|   -7.086132|   -2.731134|   -2.896622|   -0.054286|
|         469|  1.2400e+00|   -7.086259|   -2.731134|   -2.896621|   -0.054326|
|         470|  1.2381e+00|   -7.086312|   -2.731134|   -2.896616|   -0.054275|
|         471|  1.2362e+00|   -7.086343|   -2.731134|   -2.896608|   -0.054206|
|         472|  1.2343e+00|   -7.086361|   -2.731133|   -2.896598|   -0.054158|
|         473|  1.2324e+00|   -7.086412|   -2.731132|   -2.896589|   -0.054169|
|         474|  1.2305e+00|   -7.086490|   -2.731131|   -2.896580|   -0.054222|
|         475|  1.2286e+00|   -7.086566|   -2.731130|   -2.896572|   -0.054287|
|         476|  1.2267e+00|   -7.086635|   -2.731129|   -2.896563|   -0.054346|
|         477|  1.2249e+00|   -7.086692|   -2.731128|   -2.896555|   -0.054396|
|         478|  1.2230e+00|   -7.086736|   -2.731127|   -2.896547|   -0.054436|
|         479|  1.2212e+00|   -7.086772|   -2.731126|   -2.896539|   -0.054469|
|         480|  1.2193e+00|   -7.086803|   -2.731125|   -2.896532|   -0.054498|
|         481|  1.2175e+00|   -7.086830|   -2.731124|   -2.896524|   -0.054524|
|         482|  1.2157e+00|   -7.086855|   -2.731123|   -2.896517|   -0.054548|
|         483|  1.2139e+00|   -7.086875|   -2.731122|   -2.896510|   -0.054568|
|         484|  1.2120e+00|   -7.086890|   -2.731121|   -2.896503|   -0.054584|
|         485|  1.2102e+00|   -7.086898|   -2.731120|   -2.896497|   -0.054593|
|         486|  1.2084e+00|   -7.086899|   -2.731119|   -2.896490|   -0.054598|
|         487|  1.2066e+00|   -7.086884|   -2.731118|   -2.896483|   -0.054594|
|         488|  1.2049e+00|   -7.086836|   -2.731116|   -2.896477|   -0.054575|
|         489|  1.2031e+00|   -7.086844|   -2.731115|   -2.896470|   -0.054567|
|         490|  1.2013e+00|   -7.086875|   -2.731114|   -2.896462|   -0.054520|
|         491|  1.1999e+00|   -7.086820|   -2.731113|   -2.896454|   -0.054409|
|         492|  1.1982e+00|   -7.086829|   -2.731112|   -2.896449|   -0.054531|
|         493|  1.1965e+00|   -7.086801|   -2.731111|   -2.896443|   -0.054420|
|         494|  1.1947e+00|   -7.086782|   -2.731110|   -2.896437|   -0.054489|
|         495|  1.1930e+00|   -7.086781|   -2.731110|   -2.896431|   -0.054435|
|         496|  1.1913e+00|   -7.086754|   -2.731109|   -2.896425|   -0.054428|
|         497|  1.1895e+00|   -7.086731|   -2.731108|   -2.896418|   -0.054398|
|         498|  1.1879e+00|   -7.086709|   -2.731107|   -2.896411|   -0.054375|
|         499|  1.1863e+00|   -7.086672|   -2.731106|   -2.896403|   -0.054330|
|         500|  1.1847e+00|   -7.086601|   -2.731105|   -2.896392|   -0.054250|
+-----------------------------------------------------------------------+
|        File Writing Summary       |              Filename             |
+-----------------------------------------------------------------------+
|SU2 binary restart                 |restart_flow.dat                   |
|Paraview                           |flow.vtu                           |
|CSV file                           |surface_flow.csv                   |
+-----------------------------------------------------------------------+
+-----------------------------------------------------------------------------+
|  Inner_Iter|   Time(sec)|    rms[Rho]|   rms[RhoU]|   rms[RhoV]|   rms[RhoE]|
+-----------------------------------------------------------------------------+
|         501|  1.1834e+00|   -7.086475|   -2.731105|   -2.896381|   -0.054126|
|         502|  1.1818e+00|   -7.086282|   -2.731104|   -2.896373|   -0.053953|
|         503|  1.1803e+00|   -7.085920|   -2.731106|   -2.896368|   -0.053725|
|         504|  1.1788e+00|   -7.085551|   -2.731113|   -2.896370|   -0.053430|
|         505|  1.1773e+00|   -7.084350|   -2.731129|   -2.896370|   -0.052551|
|         506|  1.1759e+00|   -7.084007|   -2.731151|   -2.896398|   -0.052365|
|         507|  1.1744e+00|   -7.083367|   -2.731183|   -2.896441|   -0.051668|
|         508|  1.1731e+00|   -7.080872|   -2.731212|   -2.896506|   -0.049460|
|         509|  1.1719e+00|   -7.080798|   -2.731254|   -2.896680|   -0.049390|
|         510|  1.1707e+00|   -7.078831|   -2.731298|   -2.896958|   -0.048276|
|         511|  1.1695e+00|   -7.070190|   -2.731336|   -2.897225|   -0.040682|
|         512|  1.1685e+00|   -7.066279|   -2.731387|   -2.897664|   -0.037673|
|         513|  1.1676e+00|   -7.056422|   -2.731421|   -2.897890|   -0.029337|
|         514|  1.1668e+00|   -7.045389|   -2.731439|   -2.898060|   -0.018846|
|         515|  1.1661e+00|   -7.021667|   -2.731451|   -2.897664|    0.003063|
|         516|  1.1657e+00|   -6.989820|   -2.731389|   -2.896756|    0.033142|
|         517|  1.1654e+00|   -6.938657|   -2.731066|   -2.894299|    0.080299|
|         518|  1.1653e+00|   -6.877357|   -2.730561|   -2.891206|    0.138453|
|         519|  1.1656e+00|   -6.835716|   -2.729738|   -2.890852|    0.178811|
|         520|  1.1660e+00|   -6.773183|   -2.729298|   -2.890774|    0.239799|
|         521|  1.1668e+00|   -6.727236|   -2.728002|   -2.888748|    0.284718|
|         522|  1.1677e+00|   -6.707760|   -2.727237|   -2.888054|    0.304018|
|         523|  1.1690e+00|   -6.613648|   -2.725008|   -2.884315|    0.396786|
|         524|  1.1707e+00|   -6.513668|   -2.720204|   -2.874307|    0.496025|
|         525|  1.1727e+00|   -6.524285|   -2.718669|   -2.878217|    0.482780|
|         526|  1.1751e+00|   -6.489465|   -2.714647|   -2.875194|    0.516840|
|         527|  1.1778e+00|   -6.412723|   -2.709664|   -2.864751|    0.593425|
|         528|  1.1808e+00|   -6.400380|   -2.702557|   -2.866668|    0.603856|
|         529|  1.1837e+00|   -6.379562|   -2.697839|   -2.861395|    0.625045|
|         530|  1.1867e+00|   -6.361665|   -2.696598|   -2.859629|    0.642343|
|         531|  1.1897e+00|   -6.332064|   -2.695078|   -2.852465|    0.671728|
|         532|  1.1927e+00|   -6.331652|   -2.689178|   -2.854318|    0.670880|
|         533|  1.1956e+00|   -6.377565|   -2.692019|   -2.864766|    0.624530|
|         534|  1.1985e+00|   -6.368103|   -2.689006|   -2.858291|    0.635936|
|         535|  1.2015e+00|   -6.412271|   -2.687692|   -2.868436|    0.589393|
|         536|  1.2042e+00|   -6.410379|   -2.687045|   -2.870420|    0.589733|
|         537|  1.2072e+00|   -6.409201|   -2.685591|   -2.865169|    0.591989|
|         538|  1.2103e+00|   -6.385796|   -2.681402|   -2.861638|    0.617036|
|         539|  1.2133e+00|   -6.425855|   -2.678448|   -2.869535|    0.577646|
|         540|  1.2161e+00|   -6.407498|   -2.673958|   -2.862091|    0.597005|
|         541|  1.2191e+00|   -6.397986|   -2.670954|   -2.859234|    0.608359|
|         542|  1.2223e+00|   -6.361067|   -2.666682|   -2.849595|    0.646342|
|         543|  1.2252e+00|   -6.388392|   -2.665178|   -2.854247|    0.618451|
|         544|  1.2282e+00|   -6.360908|   -2.662262|   -2.850765|    0.646852|
|         545|  1.2311e+00|   -6.384710|   -2.661066|   -2.853596|    0.623384|
|         546|  1.2340e+00|   -6.379116|   -2.659885|   -2.854408|    0.629399|
|         547|  1.2355e+00|   -6.413258|   -2.660274|   -2.854335|    0.594231|
|         548|  1.2362e+00|   -6.519088|   -2.666674|   -2.856350|    0.493448|
|         549|  1.2362e+00|   -6.598277|   -2.671390|   -2.858449|    0.415946|
|         550|  1.2357e+00|   -6.689120|   -2.674437|   -2.859939|    0.325657|
|         551|  1.2348e+00|   -6.791470|   -2.676287|   -2.859203|    0.225944|
|         552|  1.2337e+00|   -6.892943|   -2.676690|   -2.860181|    0.130029|
|         553|  1.2324e+00|   -6.942237|   -2.677079|   -2.859584|    0.084214|
|         554|  1.2310e+00|   -6.992096|   -2.677034|   -2.859189|    0.037869|
|         555|  1.2295e+00|   -7.017194|   -2.676905|   -2.859030|    0.013863|
|         556|  1.2280e+00|   -7.029777|   -2.676795|   -2.858936|    0.002095|
|         557|  1.2264e+00|   -7.033962|   -2.676710|   -2.858914|   -0.001735|
|         558|  1.2249e+00|   -7.038205|   -2.676662|   -2.858884|   -0.005356|
|         559|  1.2234e+00|   -7.039367|   -2.676628|   -2.858861|   -0.006322|
|         560|  1.2219e+00|   -7.040432|   -2.676595|   -2.858837|   -0.007207|
|         561|  1.2203e+00|   -7.041454|   -2.676564|   -2.858820|   -0.008064|
|         562|  1.2188e+00|   -7.042273|   -2.676533|   -2.858801|   -0.008712|
|         563|  1.2173e+00|   -7.043073|   -2.676506|   -2.858782|   -0.009346|
|         564|  1.2158e+00|   -7.043589|   -2.676480|   -2.858764|   -0.009753|
|         565|  1.2143e+00|   -7.044039|   -2.676450|   -2.858740|   -0.010116|
|         566|  1.2128e+00|   -7.044336|   -2.676414|   -2.858709|   -0.010368|
|         567|  1.2114e+00|   -7.044985|   -2.676375|   -2.858663|   -0.010892|
|         568|  1.2099e+00|   -7.045483|   -2.676335|   -2.858598|   -0.011239|
|         569|  1.2085e+00|   -7.045395|   -2.676297|   -2.858514|   -0.011306|
|         570|  1.2071e+00|   -7.044796|   -2.676266|   -2.858361|   -0.010729|
|         571|  1.2058e+00|   -7.042845|   -2.676249|   -2.858099|   -0.008951|
|         572|  1.2045e+00|   -7.038088|   -2.676256|   -2.857546|   -0.004921|
|         573|  1.2031e+00|   -7.033084|   -2.676261|   -2.856744|    0.000260|
|         574|  1.2019e+00|   -7.020377|   -2.676235|   -2.855848|    0.010353|
|         575|  1.2007e+00|   -7.030103|   -2.676274|   -2.856769|    0.001926|
|         576|  1.1996e+00|   -7.026836|   -2.676385|   -2.858828|    0.005675|
|         577|  1.1985e+00|   -7.020507|   -2.676852|   -2.859975|    0.013052|
|         578|  1.1975e+00|   -7.018272|   -2.677427|   -2.861141|    0.014639|
|         579|  1.1965e+00|   -7.009761|   -2.678015|   -2.862075|    0.023863|
|         580|  1.1958e+00|   -6.994283|   -2.678422|   -2.862818|    0.038346|
|         581|  1.1951e+00|   -6.977458|   -2.678640|   -2.863103|    0.053746|
|         582|  1.1945e+00|   -6.970087|   -2.678806|   -2.863095|    0.061557|
|         583|  1.1942e+00|   -6.929197|   -2.678837|   -2.861872|    0.097864|
|         584|  1.1941e+00|   -6.918587|   -2.679266|   -2.861431|    0.106720|
|         585|  1.1941e+00|   -6.869886|   -2.679483|   -2.861420|    0.153804|
|         586|  1.1945e+00|   -6.823386|   -2.679646|   -2.859564|    0.197932|
|         587|  1.1951e+00|   -6.794961|   -2.679674|   -2.858715|    0.223965|
|         588|  1.1959e+00|   -6.722637|   -2.679244|   -2.855320|    0.293555|
|         589|  1.1970e+00|   -6.655916|   -2.677906|   -2.850712|    0.358955|
|         590|  1.1983e+00|   -6.566942|   -2.675333|   -2.847662|    0.446184|
|         591|  1.2002e+00|   -6.559175|   -2.672336|   -2.846571|    0.452913|
|         592|  1.2023e+00|   -6.554961|   -2.669134|   -2.844695|    0.456480|
|         593|  1.2049e+00|   -6.475667|   -2.664922|   -2.835950|    0.535188|
|         594|  1.2077e+00|   -6.433069|   -2.655931|   -2.832091|    0.575310|
|         595|  1.2106e+00|   -6.405869|   -2.650177|   -2.826791|    0.602222|
|         596|  1.2134e+00|   -6.406459|   -2.644307|   -2.820996|    0.602481|
|         597|  1.2161e+00|   -6.370394|   -2.642847|   -2.815674|    0.638935|
|         598|  1.2190e+00|   -6.388760|   -2.635939|   -2.814172|    0.620875|
|         599|  1.2218e+00|   -6.421264|   -2.631555|   -2.815677|    0.587977|
|         600|  1.2244e+00|   -6.406709|   -2.627140|   -2.810949|    0.602180|
|         601|  1.2272e+00|   -6.401263|   -2.621527|   -2.805509|    0.608200|
|         602|  1.2295e+00|   -6.401873|   -2.613796|   -2.800531|    0.607161|
|         603|  1.2320e+00|   -6.389010|   -2.607037|   -2.794592|    0.620251|
|         604|  1.2345e+00|   -6.425157|   -2.604155|   -2.794880|    0.583899|
|         605|  1.2371e+00|   -6.401771|   -2.600215|   -2.789810|    0.606680|
|         606|  1.2395e+00|   -6.396370|   -2.596729|   -2.785295|    0.611597|
|         607|  1.2420e+00|   -6.380847|   -2.592822|   -2.782695|    0.627158|
|         608|  1.2446e+00|   -6.407716|   -2.589743|   -2.783259|    0.598742|
|         609|  1.2471e+00|   -6.374383|   -2.587178|   -2.778106|    0.632512|
|         610|  1.2497e+00|   -6.383373|   -2.585773|   -2.776647|    0.622563|
|         611|  1.2521e+00|   -6.369764|   -2.583572|   -2.773098|    0.635967|
|         612|  1.2546e+00|   -6.342602|   -2.582655|   -2.769980|    0.664190|
|         613|  1.2574e+00|   -6.365682|   -2.582807|   -2.771574|    0.639171|
|         614|  1.2598e+00|   -6.377482|   -2.580851|   -2.774417|    0.626724|
|         615|  1.2622e+00|   -6.380892|   -2.579264|   -2.773960|    0.623740|
|         616|  1.2646e+00|   -6.367860|   -2.577347|   -2.772897|    0.636893|
|         617|  1.2671e+00|   -6.379260|   -2.573274|   -2.774493|    0.624412|
|         618|  1.2684e+00|   -6.377420|   -2.571001|   -2.773573|    0.625801|
|         619|  1.2691e+00|   -6.449539|   -2.574229|   -2.775488|    0.557031|
|         620|  1.2691e+00|   -6.548673|   -2.576607|   -2.777203|    0.458064|
|         621|  1.2686e+00|   -6.638236|   -2.578127|   -2.779910|    0.367159|
|         622|  1.2678e+00|   -6.746616|   -2.578745|   -2.781298|    0.256705|
|         623|  1.2667e+00|   -6.806298|   -2.579098|   -2.781615|    0.195452|
|         624|  1.2655e+00|   -6.862696|   -2.579257|   -2.781759|    0.137282|
|         625|  1.2642e+00|   -6.881818|   -2.579240|   -2.781850|    0.117969|
|         626|  1.2629e+00|   -6.887992|   -2.579217|   -2.781844|    0.111615|
|         627|  1.2615e+00|   -6.891520|   -2.579203|   -2.781836|    0.107631|
|         628|  1.2602e+00|   -6.890628|   -2.579192|   -2.781814|    0.107803|
|         629|  1.2589e+00|   -6.891237|   -2.579190|   -2.781823|    0.108193|
|         630|  1.2577e+00|   -6.891611|   -2.579201|   -2.781877|    0.106972|
|         631|  1.2565e+00|   -6.890264|   -2.579238|   -2.781986|    0.108095|
|         632|  1.2553e+00|   -6.889020|   -2.579299|   -2.782221|    0.110041|
|         633|  1.2542e+00|   -6.889363|   -2.579390|   -2.782578|    0.109893|
|         634|  1.2532e+00|   -6.885873|   -2.579492|   -2.782929|    0.113063|
|         635|  1.2523e+00|   -6.885107|   -2.579573|   -2.783273|    0.114094|
|         636|  1.2514e+00|   -6.876709|   -2.579597|   -2.783492|    0.122146|
|         637|  1.2508e+00|   -6.870689|   -2.579548|   -2.783510|    0.129450|
|         638|  1.2503e+00|   -6.858170|   -2.579416|   -2.783241|    0.141820|
|         639|  1.2499e+00|   -6.833310|   -2.579203|   -2.782447|    0.168760|
|         640|  1.2496e+00|   -6.818313|   -2.578981|   -2.781259|    0.184055|
|         641|  1.2496e+00|   -6.809536|   -2.578640|   -2.780913|    0.193937|
|         642|  1.2497e+00|   -6.758921|   -2.578131|   -2.780011|    0.245089|
|         643|  1.2501e+00|   -6.721189|   -2.577364|   -2.778752|    0.283950|
|         644|  1.2508e+00|   -6.699547|   -2.575956|   -2.776759|    0.305754|
|         645|  1.2516e+00|   -6.658882|   -2.574168|   -2.774348|    0.347863|
|         646|  1.2527e+00|   -6.606626|   -2.571524|   -2.770147|    0.401118|
|         647|  1.2540e+00|   -6.516187|   -2.567726|   -2.764712|    0.491992|
|         648|  1.2555e+00|   -6.500707|   -2.563373|   -2.762766|    0.505882|
|         649|  1.2574e+00|   -6.488631|   -2.558774|   -2.760127|    0.516600|
|         650|  1.2598e+00|   -6.425099|   -2.552338|   -2.756071|    0.580485|
|         651|  1.2617e+00|   -6.401352|   -2.548066|   -2.754455|    0.603667|
|         652|  1.2639e+00|   -6.406732|   -2.546288|   -2.753991|    0.599206|
|         653|  1.2662e+00|   -6.392188|   -2.545158|   -2.751842|    0.612596|
|         654|  1.2688e+00|   -6.388641|   -2.545442|   -2.750287|    0.616246|
|         655|  1.2711e+00|   -6.405858|   -2.546015|   -2.750883|    0.598642|
|         656|  1.2733e+00|   -6.390431|   -2.544531|   -2.746167|    0.615962|
|         657|  1.2755e+00|   -6.390677|   -2.544198|   -2.743458|    0.616592|
|         658|  1.2776e+00|   -6.389062|   -2.543545|   -2.742031|    0.616908|
|         659|  1.2798e+00|   -6.401493|   -2.542355|   -2.738035|    0.605010|
|         660|  1.2819e+00|   -6.403471|   -2.539783|   -2.734978|    0.604532|
|         661|  1.2831e+00|   -6.405390|   -2.537705|   -2.730423|    0.603750|
|         662|  1.2837e+00|   -6.438309|   -2.540257|   -2.725136|    0.571696|
|         663|  1.2836e+00|   -6.544168|   -2.542504|   -2.727271|    0.463712|
|         664|  1.2831e+00|   -6.629031|   -2.543561|   -2.727637|    0.378382|
|         665|  1.2823e+00|   -6.698678|   -2.544315|   -2.728724|    0.306711|
|         666|  1.2813e+00|   -6.780945|   -2.544793|   -2.729454|    0.221031|
|         667|  1.2802e+00|   -6.819803|   -2.544985|   -2.729470|    0.181261|
|         668|  1.2789e+00|   -6.830450|   -2.544958|   -2.729477|    0.169242|
|         669|  1.2776e+00|   -6.835715|   -2.544916|   -2.729433|    0.163837|
|         670|  1.2763e+00|   -6.839660|   -2.544889|   -2.729416|    0.159689|
|         671|  1.2749e+00|   -6.839542|   -2.544872|   -2.729398|    0.159065|
|         672|  1.2735e+00|   -6.841565|   -2.544864|   -2.729394|    0.157619|
|         673|  1.2721e+00|   -6.841807|   -2.544858|   -2.729386|    0.157233|
|         674|  1.2707e+00|   -6.842178|   -2.544852|   -2.729381|    0.156797|
|         675|  1.2694e+00|   -6.842419|   -2.544845|   -2.729373|    0.156527|
|         676|  1.2681e+00|   -6.842655|   -2.544838|   -2.729364|    0.156286|
|         677|  1.2667e+00|   -6.842777|   -2.544828|   -2.729352|    0.156204|
|         678|  1.2654e+00|   -6.842810|   -2.544818|   -2.729349|    0.156151|
|         679|  1.2641e+00|   -6.843170|   -2.544805|   -2.729322|    0.155703|
|         680|  1.2628e+00|   -6.843453|   -2.544790|   -2.729311|    0.155454|
|         681|  1.2616e+00|   -6.843617|   -2.544777|   -2.729325|    0.155227|
|         682|  1.2603e+00|   -6.844019|   -2.544765|   -2.729348|    0.154978|
|         683|  1.2591e+00|   -6.843531|   -2.544760|   -2.729390|    0.155328|
|         684|  1.2579e+00|   -6.843543|   -2.544766|   -2.729472|    0.155388|
|         685|  1.2567e+00|   -6.842448|   -2.544786|   -2.729586|    0.156400|
|         686|  1.2554e+00|   -6.843155|   -2.544800|   -2.729624|    0.155719|
|         687|  1.2541e+00|   -6.844782|   -2.544802|   -2.729656|    0.154229|
|         688|  1.2528e+00|   -6.845164|   -2.544805|   -2.729671|    0.153742|
|         689|  1.2514e+00|   -6.845154|   -2.544806|   -2.729678|    0.153643|
|         690|  1.2501e+00|   -6.845303|   -2.544808|   -2.729688|    0.153405|
|         691|  1.2488e+00|   -6.845444|   -2.544809|   -2.729697|    0.153252|
|         692|  1.2474e+00|   -6.845531|   -2.544811|   -2.729704|    0.153178|
|         693|  1.2461e+00|   -6.845568|   -2.544812|   -2.729710|    0.153133|
|         694|  1.2449e+00|   -6.845571|   -2.544813|   -2.729717|    0.153114|
|         695|  1.2436e+00|   -6.845550|   -2.544815|   -2.729727|    0.153117|
|         696|  1.2424e+00|   -6.845426|   -2.544817|   -2.729738|    0.153241|
|         697|  1.2411e+00|   -6.845274|   -2.544819|   -2.729752|    0.153401|
|         698|  1.2399e+00|   -6.845284|   -2.544825|   -2.729771|    0.153398|
|         699|  1.2387e+00|   -6.845470|   -2.544836|   -2.729798|    0.153264|
|         700|  1.2375e+00|   -6.845133|   -2.544850|   -2.729833|    0.153668|
|         701|  1.2364e+00|   -6.844986|   -2.544868|   -2.729878|    0.153799|
|         702|  1.2353e+00|   -6.844721|   -2.544894|   -2.729919|    0.153945|
|         703|  1.2342e+00|   -6.845420|   -2.544922|   -2.729964|    0.153492|
|         704|  1.2331e+00|   -6.844600|   -2.544949|   -2.730055|    0.154127|
|         705|  1.2321e+00|   -6.842896|   -2.544974|   -2.730138|    0.155807|
|         706|  1.2312e+00|   -6.841763|   -2.544985|   -2.730244|    0.157456|
|         707|  1.2302e+00|   -6.838378|   -2.544973|   -2.730402|    0.160966|
|         708|  1.2294e+00|   -6.837889|   -2.544933|   -2.730526|    0.161766|
|         709|  1.2286e+00|   -6.834778|   -2.544858|   -2.730625|    0.164943|
|         710|  1.2280e+00|   -6.828822|   -2.544747|   -2.730652|    0.171505|
|         711|  1.2274e+00|   -6.818277|   -2.544637|   -2.730683|    0.182821|
|         712|  1.2269e+00|   -6.813573|   -2.544533|   -2.730456|    0.188458|
|         713|  1.2266e+00|   -6.798985|   -2.544351|   -2.730021|    0.204717|
|         714|  1.2264e+00|   -6.766421|   -2.543999|   -2.729014|    0.238418|
|         715|  1.2265e+00|   -6.762094|   -2.543418|   -2.727703|    0.244518|
|         716|  1.2267e+00|   -6.733282|   -2.542877|   -2.725522|    0.274382|
|         717|  1.2271e+00|   -6.697533|   -2.541771|   -2.723250|    0.310954|
|         718|  1.2277e+00|   -6.659316|   -2.540262|   -2.719928|    0.349473|
|         719|  1.2286e+00|   -6.624141|   -2.538032|   -2.715986|    0.385675|
|         720|  1.2297e+00|   -6.559617|   -2.535069|   -2.710676|    0.450958|
|         721|  1.2310e+00|   -6.545202|   -2.531703|   -2.706086|    0.465169|
|         722|  1.2328e+00|   -6.489330|   -2.526109|   -2.698555|    0.522652|
|         723|  1.2347e+00|   -6.454999|   -2.519127|   -2.692341|    0.556535|
|         724|  1.2368e+00|   -6.399670|   -2.511223|   -2.683220|    0.611492|
|         725|  1.2391e+00|   -6.375274|   -2.503864|   -2.676257|    0.636523|
|         726|  1.2412e+00|   -6.375125|   -2.498891|   -2.671083|    0.635349|
|         727|  1.2433e+00|   -6.386649|   -2.494453|   -2.667240|    0.623229|
|         728|  1.2455e+00|   -6.352424|   -2.489010|   -2.660304|    0.655643|
|         729|  1.2476e+00|   -6.352951|   -2.485068|   -2.656894|    0.653272|
|         730|  1.2497e+00|   -6.359451|   -2.482236|   -2.653983|    0.646838|
|         731|  1.2517e+00|   -6.377837|   -2.478474|   -2.652125|    0.625798|
|         732|  1.2535e+00|   -6.361087|   -2.475870|   -2.647858|    0.642916|
|         733|  1.2553e+00|   -6.347927|   -2.472597|   -2.644695|    0.655152|
|         734|  1.2572e+00|   -6.360784|   -2.470259|   -2.642494|    0.639841|
|         735|  1.2591e+00|   -6.342210|   -2.467904|   -2.638892|    0.658738|
|         736|  1.2611e+00|   -6.346720|   -2.465816|   -2.637304|    0.653302|
|         737|  1.2631e+00|   -6.342174|   -2.463754|   -2.634679|    0.658137|
|         738|  1.2650e+00|   -6.350554|   -2.461412|   -2.632005|    0.649085|
|         739|  1.2669e+00|   -6.332406|   -2.459517|   -2.628054|    0.666300|
|         740|  1.2690e+00|   -6.323954|   -2.455271|   -2.624584|    0.675050|
|         741|  1.2709e+00|   -6.313286|   -2.452647|   -2.618708|    0.687239|
|         742|  1.2728e+00|   -6.296000|   -2.449165|   -2.615218|    0.704816|
|         743|  1.2747e+00|   -6.307012|   -2.445967|   -2.612346|    0.693838|
|         744|  1.2760e+00|   -6.288518|   -2.443083|   -2.607358|    0.712916|
|         745|  1.2766e+00|   -6.427076|   -2.447106|   -2.603355|    0.575953|
|         746|  1.2766e+00|   -6.522309|   -2.448653|   -2.601035|    0.479702|
|         747|  1.2762e+00|   -6.595803|   -2.449440|   -2.600438|    0.405146|
|         748|  1.2755e+00|   -6.664164|   -2.449818|   -2.600632|    0.333134|
|         749|  1.2746e+00|   -6.717785|   -2.450005|   -2.600400|    0.276704|
|         750|  1.2736e+00|   -6.736053|   -2.450024|   -2.600305|    0.255438|
+-----------------------------------------------------------------------+
|        File Writing Summary       |              Filename             |
+-----------------------------------------------------------------------+
|SU2 binary restart                 |restart_flow.dat                   |
|Paraview                           |flow.vtu                           |
|CSV file                           |surface_flow.csv                   |
+-----------------------------------------------------------------------+
+-----------------------------------------------------------------------------+
|  Inner_Iter|   Time(sec)|    rms[Rho]|   rms[RhoU]|   rms[RhoV]|   rms[RhoE]|
+-----------------------------------------------------------------------------+
|         751|  1.2728e+00|   -6.748666|   -2.450029|   -2.600206|    0.242228|
|         752|  1.2717e+00|   -6.752942|   -2.450011|   -2.600131|    0.236861|
|         753|  1.2705e+00|   -6.756398|   -2.449990|   -2.600116|    0.233636|
|         754|  1.2693e+00|   -6.757081|   -2.449977|   -2.600096|    0.232559|
|         755|  1.2681e+00|   -6.757986|   -2.449969|   -2.600091|    0.231751|
|         756|  1.2669e+00|   -6.758245|   -2.449960|   -2.600084|    0.231391|
|         757|  1.2657e+00|   -6.758567|   -2.449950|   -2.600078|    0.231035|
|         758|  1.2646e+00|   -6.758773|   -2.449940|   -2.600070|    0.230746|
|         759|  1.2635e+00|   -6.758814|   -2.449929|   -2.600060|    0.230481|
|         760|  1.2623e+00|   -6.759251|   -2.449919|   -2.600049|    0.230217|
|         761|  1.2613e+00|   -6.759028|   -2.449909|   -2.600047|    0.230093|
|         762|  1.2602e+00|   -6.759330|   -2.449901|   -2.600050|    0.229967|
|         763|  1.2592e+00|   -6.758785|   -2.449895|   -2.600051|    0.230545|
|         764|  1.2582e+00|   -6.757820|   -2.449893|   -2.600081|    0.231251|
|         765|  1.2572e+00|   -6.757703|   -2.449896|   -2.600085|    0.231940|
|         766|  1.2563e+00|   -6.756587|   -2.449901|   -2.600097|    0.232686|
|         767|  1.2555e+00|   -6.755803|   -2.449880|   -2.600103|    0.234241|
|         768|  1.2547e+00|   -6.754652|   -2.449816|   -2.600060|    0.235496|
|         769|  1.2540e+00|   -6.750910|   -2.449682|   -2.600004|    0.239959|
|         770|  1.2534e+00|   -6.748548|   -2.449497|   -2.600003|    0.241952|
|         771|  1.2529e+00|   -6.739777|   -2.449268|   -2.599945|    0.251503|
|         772|  1.2525e+00|   -6.734022|   -2.449017|   -2.599685|    0.258569|
|         773|  1.2522e+00|   -6.728442|   -2.448694|   -2.599135|    0.263851|
|         774|  1.2521e+00|   -6.717649|   -2.448233|   -2.598465|    0.276262|
|         775|  1.2521e+00|   -6.682910|   -2.447588|   -2.596995|    0.313881|
|         776|  1.2524e+00|   -6.666317|   -2.446732|   -2.595231|    0.333170|
|         777|  1.2529e+00|   -6.615550|   -2.445275|   -2.592574|    0.386934|
|         778|  1.2535e+00|   -6.589530|   -2.443388|   -2.589605|    0.414301|
|         779|  1.2544e+00|   -6.541574|   -2.440754|   -2.585550|    0.463922|
|         780|  1.2554e+00|   -6.496676|   -2.437075|   -2.581439|    0.509139|
|         781|  1.2566e+00|   -6.438957|   -2.432298|   -2.576686|    0.566749|
|         782|  1.2581e+00|   -6.380229|   -2.425865|   -2.571080|    0.625796|
|         783|  1.2599e+00|   -6.312285|   -2.417175|   -2.565350|    0.693314|
|         784|  1.2616e+00|   -6.254018|   -2.408174|   -2.559113|    0.750901|
|         785|  1.2632e+00|   -6.240596|   -2.403076|   -2.552163|    0.766033|
|         786|  1.2649e+00|   -6.236303|   -2.399549|   -2.548585|    0.769540|
|         787|  1.2668e+00|   -6.264486|   -2.397421|   -2.547273|    0.740745|
|         788|  1.2688e+00|   -6.238545|   -2.394691|   -2.542881|    0.768334|
|         789|  1.2707e+00|   -6.245529|   -2.393862|   -2.540947|    0.761491|
|         790|  1.2727e+00|   -6.270134|   -2.393349|   -2.542368|    0.737975|
|         791|  1.2746e+00|   -6.273486|   -2.393801|   -2.542871|    0.735365|
|         792|  1.2768e+00|   -6.294936|   -2.394396|   -2.545764|    0.714058|
|         793|  1.2787e+00|   -6.304994|   -2.395869|   -2.547839|    0.705203|
|         794|  1.2807e+00|   -6.316671|   -2.395927|   -2.551081|    0.694100|
|         795|  1.2827e+00|   -6.298508|   -2.396062|   -2.553596|    0.713327|
|         796|  1.2847e+00|   -6.310516|   -2.395312|   -2.557726|    0.701891|
|         797|  1.2867e+00|   -6.278486|   -2.394088|   -2.558339|    0.733556|
|         798|  1.2886e+00|   -6.263025|   -2.392240|   -2.559085|    0.748179|
|         799|  1.2906e+00|   -6.274373|   -2.389764|   -2.561961|    0.736141|
|         800|  1.2925e+00|   -6.267503|   -2.387395|   -2.561693|    0.742121|
|         801|  1.2943e+00|   -6.268946|   -2.385478|   -2.560723|    0.740443|
|         802|  1.2952e+00|   -6.261843|   -2.382190|   -2.559331|    0.748000|
|         803|  1.2958e+00|   -6.372199|   -2.386111|   -2.555357|    0.636792|
|         804|  1.2958e+00|   -6.478149|   -2.387164|   -2.554176|    0.529397|
|         805|  1.2954e+00|   -6.564400|   -2.387415|   -2.553850|    0.443037|
|         806|  1.2948e+00|   -6.627738|   -2.387454|   -2.554099|    0.380803|
|         807|  1.2939e+00|   -6.667848|   -2.387312|   -2.554172|    0.340729|
|         808|  1.2930e+00|   -6.690004|   -2.387174|   -2.554212|    0.318771|
|         809|  1.2920e+00|   -6.695526|   -2.387097|   -2.554182|    0.313080|
|         810|  1.2909e+00|   -6.699863|   -2.387021|   -2.554134|    0.308906|
|         811|  1.2898e+00|   -6.700847|   -2.386995|   -2.554108|    0.307906|
|         812|  1.2886e+00|   -6.702179|   -2.386971|   -2.554097|    0.306296|
|         813|  1.2875e+00|   -6.702489|   -2.386959|   -2.554092|    0.306024|
|         814|  1.2863e+00|   -6.702733|   -2.386955|   -2.554087|    0.305796|
|         815|  1.2851e+00|   -6.702901|   -2.386950|   -2.554085|    0.305621|
|         816|  1.2840e+00|   -6.703034|   -2.386942|   -2.554081|    0.305476|
|         817|  1.2828e+00|   -6.703124|   -2.386936|   -2.554077|    0.305372|
|         818|  1.2816e+00|   -6.703193|   -2.386931|   -2.554074|    0.305285|
|         819|  1.2805e+00|   -6.703250|   -2.386926|   -2.554071|    0.305210|
|         820|  1.2793e+00|   -6.703296|   -2.386920|   -2.554068|    0.305148|
[...]
|        2272|  1.3564e+00|   -6.501278|   -3.306709|   -3.299335|    0.506929|
|        2273|  1.3569e+00|   -6.536233|   -3.318878|   -3.346371|    0.470729|
|        2274|  1.3575e+00|   -6.558434|   -3.337156|   -3.362674|    0.450554|
|        2275|  1.3580e+00|   -6.580767|   -3.319447|   -3.387140|    0.425817|
|        2276|  1.3587e+00|   -6.533795|   -3.329649|   -3.338681|    0.475136|
|        2277|  1.3593e+00|   -6.529903|   -3.313334|   -3.345141|    0.479097|
|        2278|  1.3599e+00|   -6.556342|   -3.300345|   -3.379412|    0.451805|
|        2279|  1.3604e+00|   -6.539239|   -3.302753|   -3.354316|    0.469139|
|        2280|  1.3609e+00|   -6.515038|   -3.315732|   -3.342170|    0.493675|
|        2281|  1.3615e+00|   -6.560885|   -3.338165|   -3.382018|    0.446816|
|        2282|  1.3621e+00|   -6.549508|   -3.324132|   -3.378612|    0.458985|
|        2283|  1.3627e+00|   -6.533121|   -3.305175|   -3.349028|    0.475736|
|        2284|  1.3633e+00|   -6.531841|   -3.308455|   -3.348961|    0.477754|
|        2285|  1.3639e+00|   -6.539383|   -3.336072|   -3.362548|    0.469739|
|        2286|  1.3645e+00|   -6.551615|   -3.356676|   -3.363052|    0.457507|
|        2287|  1.3651e+00|   -6.552365|   -3.354098|   -3.377342|    0.458132|
|        2288|  1.3657e+00|   -6.557530|   -3.344874|   -3.381776|    0.452598|
|        2289|  1.3663e+00|   -6.532637|   -3.342523|   -3.345723|    0.476087|
|        2290|  1.3669e+00|   -6.562645|   -3.355352|   -3.380778|    0.445956|
|        2291|  1.3674e+00|   -6.539228|   -3.350877|   -3.357215|    0.470112|
|        2292|  1.3680e+00|   -6.541531|   -3.339058|   -3.360074|    0.469696|
|        2293|  1.3686e+00|   -6.555895|   -3.322711|   -3.366944|    0.453238|
|        2294|  1.3692e+00|   -6.558094|   -3.354066|   -3.361042|    0.451393|
|        2295|  1.3697e+00|   -6.564507|   -3.375093|   -3.369258|    0.445116|
|        2296|  1.3703e+00|   -6.596356|   -3.362629|   -3.392201|    0.413262|
|        2297|  1.3708e+00|   -6.584904|   -3.360801|   -3.396666|    0.423870|
|        2298|  1.3714e+00|   -6.575102|   -3.369712|   -3.380912|    0.434579|
|        2299|  1.3720e+00|   -6.602747|   -3.357040|   -3.389829|    0.407317|
|        2300|  1.3725e+00|   -6.607900|   -3.368943|   -3.413183|    0.401558|
|        2301|  1.3730e+00|   -6.557121|   -3.351462|   -3.358323|    0.453311|
|        2302|  1.3735e+00|   -6.536279|   -3.361678|   -3.348183|    0.473726|
|        2303|  1.3741e+00|   -6.586361|   -3.346853|   -3.388393|    0.421756|
|        2304|  1.3747e+00|   -6.586574|   -3.333071|   -3.376747|    0.422805|
|        2305|  1.3752e+00|   -6.596150|   -3.354688|   -3.390824|    0.412847|
|        2306|  1.3758e+00|   -6.587118|   -3.335419|   -3.375255|    0.423050|
|        2307|  1.3764e+00|   -6.548367|   -3.337331|   -3.336095|    0.461330|
|        2308|  1.3769e+00|   -6.575941|   -3.322120|   -3.364803|    0.434431|
|        2309|  1.3774e+00|   -6.551026|   -3.328259|   -3.346448|    0.459192|
|        2310|  1.3779e+00|   -6.500706|   -3.316538|   -3.302638|    0.509151|
|        2311|  1.3784e+00|   -6.530579|   -3.303641|   -3.321265|    0.479226|
|        2312|  1.3788e+00|   -6.513411|   -3.310207|   -3.310299|    0.496176|
|        2313|  1.3790e+00|   -6.542317|   -3.295708|   -3.325692|    0.465643|
|        2314|  1.3791e+00|   -6.599527|   -3.313500|   -3.362408|    0.409608|
|        2315|  1.3790e+00|   -6.633309|   -3.355280|   -3.382806|    0.376208|
|        2316|  1.3788e+00|   -6.785842|   -3.389421|   -3.427725|    0.220416|
|        2317|  1.3785e+00|   -6.903657|   -3.400759|   -3.451545|    0.099844|
|        2318|  1.3782e+00|   -7.131422|   -3.408078|   -3.463914|   -0.142609|
|        2319|  1.3779e+00|   -7.274546|   -3.405834|   -3.468376|   -0.309931|
|        2320|  1.3776e+00|   -7.269398|   -3.409993|   -3.475951|   -0.301685|
|        2321|  1.3773e+00|   -7.239302|   -3.420726|   -3.481492|   -0.265509|
|        2322|  1.3771e+00|   -7.242637|   -3.428694|   -3.490297|   -0.267802|
|        2323|  1.3769e+00|   -7.213581|   -3.428079|   -3.496155|   -0.233874|
|        2324|  1.3768e+00|   -7.115047|   -3.428989|   -3.498587|   -0.124512|
|        2325|  1.3767e+00|   -7.054235|   -3.426245|   -3.506079|   -0.058741|
|        2326|  1.3766e+00|   -6.951971|   -3.419626|   -3.490592|    0.051437|
|        2327|  1.3764e+00|   -6.940945|   -3.416870|   -3.475855|    0.060894|
|        2328|  1.3761e+00|   -7.018310|   -3.421193|   -3.469679|   -0.019004|
|        2329|  1.3758e+00|   -7.156299|   -3.418213|   -3.474657|   -0.168549|
|        2330|  1.3755e+00|   -7.292908|   -3.412974|   -3.476103|   -0.332625|
|        2331|  1.3752e+00|   -7.298100|   -3.412514|   -3.479278|   -0.339729|
|        2332|  1.3750e+00|   -7.289743|   -3.420089|   -3.483597|   -0.328451|
|        2333|  1.3747e+00|   -7.256702|   -3.430219|   -3.492837|   -0.284718|
|        2334|  1.3746e+00|   -7.194394|   -3.435958|   -3.503682|   -0.214890|
|        2335|  1.3744e+00|   -7.095152|   -3.434543|   -3.508615|   -0.104341|
|        2336|  1.3743e+00|   -6.996468|   -3.430486|   -3.483843|    0.002144|
|        2337|  1.3743e+00|   -6.985917|   -3.419549|   -3.479327|    0.014709|
|        2338|  1.3742e+00|   -6.905570|   -3.411409|   -3.488159|    0.097955|
|        2339|  1.3743e+00|   -6.822618|   -3.414324|   -3.473882|    0.183640|
|        2340|  1.3744e+00|   -6.794523|   -3.398926|   -3.448304|    0.212263|
|        2341|  1.3745e+00|   -6.747818|   -3.371874|   -3.434511|    0.258508|
|        2342|  1.3748e+00|   -6.644784|   -3.343891|   -3.383396|    0.365093|
|        2343|  1.3750e+00|   -6.603257|   -3.326268|   -3.341566|    0.406189|
|        2344|  1.3754e+00|   -6.576432|   -3.321374|   -3.332846|    0.433181|
|        2345|  1.3758e+00|   -6.567943|   -3.305064|   -3.332217|    0.441091|
|        2346|  1.3761e+00|   -6.573506|   -3.290953|   -3.335685|    0.434145|
|        2347|  1.3762e+00|   -6.598892|   -3.318095|   -3.353200|    0.410210|
|        2348|  1.3763e+00|   -6.690439|   -3.335989|   -3.384976|    0.318204|
|        2349|  1.3765e+00|   -6.668352|   -3.331991|   -3.377909|    0.340140|
|        2350|  1.3767e+00|   -6.608422|   -3.304919|   -3.355586|    0.399626|
|        2351|  1.3768e+00|   -6.547624|   -3.274868|   -3.299853|    0.461752|
|        2352|  1.3767e+00|   -6.630456|   -3.301398|   -3.355669|    0.378617|
|        2353|  1.3765e+00|   -6.708658|   -3.316471|   -3.377770|    0.299158|
|        2354|  1.3764e+00|   -6.825416|   -3.342235|   -3.411142|    0.177528|
|        2355|  1.3763e+00|   -6.811030|   -3.347027|   -3.402815|    0.193113|
|        2356|  1.3763e+00|   -6.840271|   -3.347989|   -3.415727|    0.164123|
|        2357|  1.3763e+00|   -6.727198|   -3.336286|   -3.391358|    0.279380|
|        2358|  1.3764e+00|   -6.716457|   -3.334933|   -3.384160|    0.290009|
|        2359|  1.3765e+00|   -6.718126|   -3.326071|   -3.384773|    0.288405|
|        2360|  1.3768e+00|   -6.684234|   -3.313521|   -3.369289|    0.322312|
|        2361|  1.3771e+00|   -6.635213|   -3.307296|   -3.350046|    0.372623|
|        2362|  1.3772e+00|   -6.599645|   -3.282198|   -3.334709|    0.408582|
|        2363|  1.3771e+00|   -6.600723|   -3.286961|   -3.328239|    0.407645|
|        2364|  1.3769e+00|   -6.705685|   -3.311327|   -3.364231|    0.300551|
|        2365|  1.3768e+00|   -6.853422|   -3.335179|   -3.397471|    0.149057|
|        2366|  1.3767e+00|   -6.895814|   -3.335903|   -3.407708|    0.105550|
|        2367|  1.3767e+00|   -6.855837|   -3.334926|   -3.416916|    0.145963|
|        2368|  1.3767e+00|   -6.794855|   -3.330972|   -3.393100|    0.209197|
|        2369|  1.3768e+00|   -6.758467|   -3.325638|   -3.387367|    0.246186|
|        2370|  1.3770e+00|   -6.719356|   -3.311734|   -3.370156|    0.285518|
|        2371|  1.3769e+00|   -6.692369|   -3.296680|   -3.367836|    0.312692|
|        2372|  1.3768e+00|   -6.724841|   -3.306108|   -3.368605|    0.282365|
|        2373|  1.3767e+00|   -6.844025|   -3.314970|   -3.392603|    0.157778|
|        2374|  1.3767e+00|   -6.852696|   -3.321923|   -3.398255|    0.149261|
|        2375|  1.3767e+00|   -6.840320|   -3.320995|   -3.398402|    0.162439|
|        2376|  1.3767e+00|   -6.748304|   -3.305291|   -3.373699|    0.256156|
|        2377|  1.3766e+00|   -6.690336|   -3.283252|   -3.351838|    0.315475|
|        2378|  1.3764e+00|   -6.755070|   -3.294403|   -3.358313|    0.250748|
|        2379|  1.3762e+00|   -6.869952|   -3.308531|   -3.361890|    0.130792|
|        2380|  1.3759e+00|   -7.103505|   -3.308362|   -3.374018|   -0.126893|
|        2381|  1.3757e+00|   -7.089651|   -3.314776|   -3.378781|   -0.110674|
|        2382|  1.3756e+00|   -7.086694|   -3.322750|   -3.386002|   -0.107527|
|        2383|  1.3754e+00|   -6.968819|   -3.319023|   -3.389285|    0.024419|
|        2384|  1.3754e+00|   -6.920289|   -3.315442|   -3.371998|    0.077365|
|        2385|  1.3754e+00|   -6.882440|   -3.312834|   -3.376616|    0.118288|
|        2386|  1.3754e+00|   -6.821992|   -3.309549|   -3.372051|    0.181217|
|        2387|  1.3755e+00|   -6.774614|   -3.292547|   -3.369855|    0.229026|
|        2388|  1.3754e+00|   -6.687227|   -3.283807|   -3.336542|    0.318583|
|        2389|  1.3752e+00|   -6.831955|   -3.292068|   -3.353487|    0.169764|
|        2390|  1.3751e+00|   -6.956460|   -3.305155|   -3.365622|    0.038250|
|        2391|  1.3750e+00|   -6.959895|   -3.309847|   -3.379730|    0.036061|
|        2392|  1.3750e+00|   -6.921840|   -3.310728|   -3.381982|    0.075078|
|        2393|  1.3750e+00|   -6.839296|   -3.303458|   -3.372729|    0.162581|
|        2394|  1.3751e+00|   -6.799915|   -3.297215|   -3.359930|    0.204028|
|        2395|  1.3750e+00|   -6.752536|   -3.277395|   -3.346868|    0.254013|
|        2396|  1.3748e+00|   -6.828192|   -3.293361|   -3.348035|    0.173233|
|        2397|  1.3745e+00|   -6.953046|   -3.293095|   -3.350791|    0.041010|
|        2398|  1.3743e+00|   -7.096792|   -3.293313|   -3.351459|   -0.123360|
|        2399|  1.3741e+00|   -7.095997|   -3.296102|   -3.357978|   -0.118098|
|        2400|  1.3739e+00|   -7.105399|   -3.306485|   -3.368049|   -0.130260|
|        2401|  1.3738e+00|   -7.042133|   -3.308224|   -3.378708|   -0.056576|
|        2402|  1.3737e+00|   -6.992450|   -3.301483|   -3.380928|   -0.000617|
|        2403|  1.3737e+00|   -6.907656|   -3.293715|   -3.361152|    0.090950|
|        2404|  1.3737e+00|   -6.856377|   -3.280762|   -3.352914|    0.144612|
|        2405|  1.3736e+00|   -6.787394|   -3.276639|   -3.341776|    0.217138|
|        2406|  1.3734e+00|   -6.875004|   -3.285993|   -3.338024|    0.126473|
|        2407|  1.3731e+00|   -7.013201|   -3.290454|   -3.345579|   -0.024734|
|        2408|  1.3728e+00|   -7.132759|   -3.289992|   -3.343553|   -0.165019|
|        2409|  1.3726e+00|   -7.154367|   -3.291194|   -3.347193|   -0.191898|
|        2410|  1.3724e+00|   -7.171542|   -3.297075|   -3.354692|   -0.214282|
|        2411|  1.3722e+00|   -7.113819|   -3.300774|   -3.360124|   -0.141438|
|        2412|  1.3721e+00|   -7.045749|   -3.298595|   -3.361397|   -0.061819|
|        2413|  1.3720e+00|   -6.933508|   -3.294941|   -3.355819|    0.062086|
|        2414|  1.3720e+00|   -6.899257|   -3.285612|   -3.345507|    0.098837|
|        2415|  1.3720e+00|   -6.847050|   -3.276846|   -3.340686|    0.155107|
|        2416|  1.3721e+00|   -6.755709|   -3.276407|   -3.320822|    0.248755|
|        2417|  1.3723e+00|   -6.744814|   -3.261032|   -3.327800|    0.259233|
|        2418|  1.3725e+00|   -6.709008|   -3.257451|   -3.315282|    0.296220|
|        2419|  1.3728e+00|   -6.675525|   -3.236454|   -3.299025|    0.328869|
|        2420|  1.3731e+00|   -6.627454|   -3.218917|   -3.282926|    0.377882|
|        2421|  1.3737e+00|   -6.590034|   -3.200168|   -3.280250|    0.414654|
|        2422|  1.3743e+00|   -6.558699|   -3.175564|   -3.264462|    0.444779|
|        2423|  1.3748e+00|   -6.544202|   -3.157849|   -3.251004|    0.458927|
|        2424|  1.3754e+00|   -6.519000|   -3.147878|   -3.232217|    0.485336|
|        2425|  1.3760e+00|   -6.518641|   -3.142195|   -3.228595|    0.485265|
|        2426|  1.3765e+00|   -6.520102|   -3.136170|   -3.225816|    0.482648|
|        2427|  1.3772e+00|   -6.524370|   -3.139873|   -3.227719|    0.478141|
|        2428|  1.3778e+00|   -6.516526|   -3.140600|   -3.222057|    0.486135|
|        2429|  1.3784e+00|   -6.538775|   -3.137341|   -3.233374|    0.463439|
|        2430|  1.3789e+00|   -6.501796|   -3.131164|   -3.214600|    0.502712|
|        2431|  1.3785e+00|   -6.494410|   -3.128632|   -3.215581|    0.508669|
|        2432|  1.3781e+00|   -6.583123|   -3.137556|   -3.215449|    0.417340|
|        2433|  1.3777e+00|   -6.682248|   -3.144634|   -3.212802|    0.313859|
|        2434|  1.3773e+00|   -6.786131|   -3.150697|   -3.208941|    0.203156|
|        2435|  1.3769e+00|   -6.885657|   -3.154843|   -3.205765|    0.092721|
|        2436|  1.3765e+00|   -6.977996|   -3.156342|   -3.201925|   -0.014294|
|        2437|  1.3761e+00|   -7.054628|   -3.156164|   -3.197462|   -0.109005|
|        2438|  1.3757e+00|   -7.112997|   -3.154826|   -3.192967|   -0.188411|
|        2439|  1.3754e+00|   -7.158591|   -3.152971|   -3.189301|   -0.256019|
|        2440|  1.3750e+00|   -7.190484|   -3.151331|   -3.186356|   -0.309928|
|        2441|  1.3746e+00|   -7.208697|   -3.150344|   -3.184890|   -0.339883|
|        2442|  1.3743e+00|   -7.212040|   -3.150577|   -3.184505|   -0.342121|
|        2443|  1.3740e+00|   -7.217420|   -3.152423|   -3.186878|   -0.349774|
|        2444|  1.3737e+00|   -7.198730|   -3.157678|   -3.192508|   -0.306381|
|        2445|  1.3733e+00|   -7.186852|   -3.167034|   -3.201731|   -0.283167|
|        2446|  1.3731e+00|   -7.177937|   -3.180205|   -3.214017|   -0.266766|
|        2447|  1.3728e+00|   -7.167538|   -3.195377|   -3.228336|   -0.239963|
|        2448|  1.3725e+00|   -7.162739|   -3.208210|   -3.245271|   -0.232555|
|        2449|  1.3723e+00|   -7.156962|   -3.215069|   -3.257894|   -0.204687|
|        2450|  1.3721e+00|   -7.091486|   -3.216340|   -3.266209|   -0.125022|
|        2451|  1.3720e+00|   -7.030660|   -3.216754|   -3.268100|   -0.046312|
|        2452|  1.3719e+00|   -7.047121|   -3.219767|   -3.269835|   -0.065736|
|        2453|  1.3718e+00|   -6.981706|   -3.219471|   -3.272908|    0.007908|
|        2454|  1.3718e+00|   -6.934904|   -3.219554|   -3.277138|    0.057945|
|        2455|  1.3718e+00|   -6.856243|   -3.216254|   -3.274614|    0.142433|
|        2456|  1.3719e+00|   -6.796278|   -3.214118|   -3.276164|    0.205648|
|        2457|  1.3720e+00|   -6.736577|   -3.207623|   -3.272972|    0.267462|
|        2458|  1.3722e+00|   -6.689692|   -3.201155|   -3.272347|    0.315051|
|        2459|  1.3725e+00|   -6.651829|   -3.186232|   -3.268402|    0.354532|
|        2460|  1.3729e+00|   -6.575497|   -3.176818|   -3.253206|    0.431776|
|        2461|  1.3734e+00|   -6.570038|   -3.161276|   -3.272290|    0.436057|
|        2462|  1.3739e+00|   -6.554086|   -3.162012|   -3.283226|    0.449685|
|        2463|  1.3745e+00|   -6.519035|   -3.152607|   -3.278207|    0.485646|
|        2464|  1.3749e+00|   -6.477170|   -3.153308|   -3.260365|    0.528324|
|        2465|  1.3755e+00|   -6.489465|   -3.147975|   -3.282510|    0.515218|
|        2466|  1.3760e+00|   -6.474010|   -3.130019|   -3.276850|    0.531146|
|        2467|  1.3765e+00|   -6.465300|   -3.131874|   -3.277078|    0.540325|
|        2468|  1.3770e+00|   -6.456106|   -3.137460|   -3.268171|    0.548613|
|        2469|  1.3775e+00|   -6.454652|   -3.135911|   -3.281534|    0.549927|
|        2470|  1.3780e+00|   -6.497489|   -3.130406|   -3.304923|    0.505359|
|        2471|  1.3785e+00|   -6.485210|   -3.128906|   -3.294548|    0.517029|
|        2472|  1.3791e+00|   -6.500169|   -3.126492|   -3.298623|    0.501342|
|        2473|  1.3797e+00|   -6.511471|   -3.124431|   -3.298028|    0.487939|
|        2474|  1.3802e+00|   -6.470334|   -3.111936|   -3.261966|    0.531404|
|        2475|  1.3808e+00|   -6.480628|   -3.121310|   -3.269604|    0.520239|
|        2476|  1.3814e+00|   -6.485639|   -3.119399|   -3.253422|    0.514145|
|        2477|  1.3820e+00|   -6.496243|   -3.120797|   -3.261778|    0.503521|
|        2478|  1.3826e+00|   -6.478076|   -3.132892|   -3.242171|    0.522676|
|        2479|  1.3832e+00|   -6.493940|   -3.133852|   -3.254749|    0.504629|
|        2480|  1.3837e+00|   -6.499229|   -3.119775|   -3.252658|    0.500340|
|        2481|  1.3843e+00|   -6.487588|   -3.118274|   -3.234885|    0.512609|
|        2482|  1.3849e+00|   -6.464351|   -3.121471|   -3.222926|    0.537531|
|        2483|  1.3854e+00|   -6.485497|   -3.128987|   -3.227159|    0.516082|
|        2484|  1.3860e+00|   -6.470013|   -3.121579|   -3.211250|    0.532459|
|        2485|  1.3866e+00|   -6.470140|   -3.133234|   -3.222210|    0.533077|
|        2486|  1.3872e+00|   -6.509468|   -3.139835|   -3.235942|    0.492863|
|        2487|  1.3878e+00|   -6.489035|   -3.140293|   -3.232567|    0.514789|
|        2488|  1.3884e+00|   -6.528753|   -3.150423|   -3.250544|    0.473393|
|        2489|  1.3889e+00|   -6.530981|   -3.153196|   -3.249141|    0.470961|
|        2490|  1.3895e+00|   -6.518676|   -3.148194|   -3.236612|    0.483890|
|        2491|  1.3897e+00|   -6.515765|   -3.154642|   -3.242011|    0.487222|
|        2492|  1.3898e+00|   -6.562196|   -3.182549|   -3.228294|    0.444244|
|        2493|  1.3897e+00|   -6.669955|   -3.195785|   -3.260335|    0.335650|
|        2494|  1.3896e+00|   -6.800750|   -3.219476|   -3.278041|    0.200094|
|        2495|  1.3895e+00|   -6.936623|   -3.232147|   -3.284661|    0.056025|
|        2496|  1.3894e+00|   -6.914881|   -3.237147|   -3.290006|    0.079326|
|        2497|  1.3894e+00|   -6.902294|   -3.237159|   -3.288108|    0.094255|
|        2498|  1.3894e+00|   -6.843952|   -3.236300|   -3.281491|    0.155556|
|        2499|  1.3895e+00|   -6.845138|   -3.237640|   -3.286072|    0.154494|

----------------------------- Solver Exit -------------------------------

Maximum number of iterations reached (ITER = 2500) before convergence.
+-----------------------------------------------------------------------+
|      Convergence Field     |     Value    |   Criterion  |  Converged |
+-----------------------------------------------------------------------+
|                    rms[Rho]|      -6.84514|          < -8|          No|
+-----------------------------------------------------------------------+
-------------------------------------------------------------------------
+-----------------------------------------------------------------------+
|        File Writing Summary       |              Filename             |
+-----------------------------------------------------------------------+
|SU2 binary restart                 |restart_flow.dat                   |
|Paraview                           |flow.vtu                           |
|CSV file                           |surface_flow.csv                   |
+-----------------------------------------------------------------------+

--------------------------- Finalizing Solver ---------------------------
Deleted CNumerics container.
Deleted CIntegration container.
Deleted CSolver container.
Deleted CIteration container.
Deleted CInterface container.
Deleted CGeometry container.
Deleted CFreeFormDefBox class.
Deleted CSurfaceMovement class.
Deleted CVolumetricMovement class.
Deleted CConfig container.
Deleted nInst container.
Deleted COutput class.
-------------------------------------------------------------------------

------------------------- Exit Success (SU2_CFD) ------------------------


Total elapsed: 0:57:56
