
-------------------------------------------------------------------------
|    ___ _   _ ___                                                      |
|   / __| | | |_  )   Release 8.3.0 "Harrier"                           |
|   \__ \ |_| |/ /                                                      |
|   |___/\___//___|   Suite (Computational Fluid Dynamics Code)         |
|                                                                       |
-------------------------------------------------------------------------
| SU2 Project Website: https://su2code.github.io                        |
|                                                                       |
| The SU2 Project is maintained by the SU2 Foundation                   |
| (http://su2foundation.org)                                            |
-------------------------------------------------------------------------
| Copyright 2012-2025, SU2 Contributors                                 |
|                                                                       |
| SU2 is free software; you can redistribute it and/or                  |
| modify it under the terms of the GNU Lesser General Public            |
| License as published by the Free Software Foundation; either          |
| version 2.1 of the License, or (at your option) any later version.    |
|                                                                       |
| SU2 is distributed in the hope that it will be useful,                |
| but WITHOUT ANY WARRANTY; without even the implied warranty of        |
| MERCHANTABILITY or FITNESS FOR A PARTICULAR PURPOSE. See the GNU      |
| Lesser General Public License for more details.                       |
|                                                                       |
| You should have received a copy of the GNU Lesser General Public      |
| License along with SU2. If not, see <http://www.gnu.org/licenses/>.   |
-------------------------------------------------------------------------

Parsing config file for zone 0

----------------- Physical Case Definition ( Zone 0 ) -------------------
Compressible Laminar Navier-Stokes' equations.
Mach number: 0.3.
Angle of attack (AoA): 0 deg, and angle of sideslip (AoS): 0 deg.
Reynolds number: 89810. Reference length 0.166667.
No restart solution, use the values at infinity (freestream).
Dimensional simulation.
The reference area is 0.0833333 ft^2.
The semi-span will be computed using the max y(3D) value.
The reference length is 0.166667 ft.
Input mesh file name: swirler_n6_c2_AoA10_NACA8412.su2

--------------- Space Numerical Integration ( Zone 0 ) ------------------
Roe (with entropy fix = 0.1) solver for the flow inviscid terms.
Standard Roe without low-dissipation function.
Second order integration in space, with slope limiter.
Venkatakrishnan slope-limiting method, with constant: 0.02.
The reference element size is: 3.28084. 
Average of gradients with correction (viscous flow terms).
Gradient for upwind reconstruction: inverse-distance weighted Least-Squares.
Gradient for viscous and source terms: inverse-distance weighted Least-Squares.

--------------- Time Numerical Integration  ( Zone 0 ) ------------------
Local time stepping (steady state simulation).
Euler implicit method for the flow equations.
FGMRES is used for solving the linear system.
Using a ILU(0) preconditioning.
Convergence criteria of the linear solver: 1e-06.
Max number of linear iterations: 120.
CFL adaptation. Factor down: 0.5, factor up: 1.05,
                lower limit: 0.01, upper limit: 3,
                acceptable linear residual: 0.001'
                starting iteration: 0.
Courant-Friedrichs-Lewy number:      0.5

------------------ Convergence Criteria  ( Zone 0 ) ---------------------
Maximum number of solver subiterations: 3000.
Begin convergence monitoring at iteration 50.
Residual minimum value: 1e-8.
Cauchy series min. value: 1e-06.
Number of Cauchy elements: 100.
Begin windowed time average at iteration 0.

-------------------- Output Information ( Zone 0 ) ----------------------
File writing frequency: 
+------------------------------------+
|                     File| Frequency|
+------------------------------------+
|                  RESTART|       250|
|                 PARAVIEW|       250|
|              SURFACE_CSV|       250|
+------------------------------------+
Writing the convergence history file every 1 inner iterations.
Writing the screen convergence history every 1 inner iterations.
The tabular file format is CSV (.csv).
Convergence history file name: history.
Forces breakdown file name: forces_breakdown.dat.
Surface file name: surface_flow.
Volume file name: flow.
Restart file name: restart_flow.

------------- Config File Boundary Information ( Zone 0 ) ---------------
+-----------------------------------------------------------------------+
|                        Marker Type|                        Marker Name|
+-----------------------------------------------------------------------+
|                     Inlet boundary|                              Inlet|
+-----------------------------------------------------------------------+
|                    Outlet boundary|                             Outlet|
+-----------------------------------------------------------------------+
|                     Heat flux wall|                           Airfoils|
|                                   |                          Symmetry1|
|                                   |                          Symmetry2|
+-----------------------------------------------------------------------+

-------------------- Output Preprocessing ( Zone 0 ) --------------------

WARNING: SURFACE_PRESSURE_DROP can only be computed for at least 2 surfaces (outlet, inlet, ...)

Screen output fields: INNER_ITER, WALL_TIME, RMS_DENSITY, RMS_MOMENTUM-X, RMS_MOMENTUM-Y, RMS_ENERGY
History output group(s): ITER, RMS_RES
Convergence field(s): RMS_DENSITY
Warning: No (valid) fields chosen for time convergence monitoring. Time convergence monitoring inactive.
Volume output fields: COORDINATES, SOLUTION, PRIMITIVE

------------------- Geometry Preprocessing ( Zone 0 ) -------------------
Two dimensional problem.
118454 grid points.
235164 volume elements.
5 surface markers.
1188 boundary elements in index 0 (Marker = Airfoils).
63 boundary elements in index 1 (Marker = Inlet).
220 boundary elements in index 2 (Marker = Symmetry1).
220 boundary elements in index 3 (Marker = Symmetry2).
63 boundary elements in index 4 (Marker = Outlet).
235164 triangles.
Setting point connectivity.
Renumbering points (Reverse Cuthill McKee Ordering).
Recomputing point connectivity.
Setting element connectivity.
Checking the numerical grid orientation.
All volume elements are correctly oriented.
All surface elements are correctly oriented.
Identifying edges and vertices.
Setting the control volume structure.
Area of the computational grid: 0.95648.
Searching for the closest normal neighbors to the surfaces.
Storing a mapping from global to local point index.
Compute the surface curvature.
Max K: 90341.5. Mean K: 343.352. Standard deviation K: 5268.13.
Checking for periodicity.
Computing mesh quality statistics for the dual control volumes.
+--------------------------------------------------------------+
|           Mesh Quality Metric|        Minimum|        Maximum|
+--------------------------------------------------------------+
|    Orthogonality Angle (deg.)|        73.5946|        89.5571|
|     CV Face Area Aspect Ratio|        1.00005|        12.6932|
|           CV Sub-Volume Ratio|              1|        10.8599|
+--------------------------------------------------------------+
Finding max control volume width.
Wetted area = 0 ft.
Area projection in the x-plane = 0 ft, y-plane = 0 ft.
Max. coordinate in the x-direction = -1e+10 ft, y-direction = -1e+10 ft.
Min. coordinate in the x-direction = 1e+10 ft, y-direction = 1e+10 ft.
Computing wall distances.

-------------------- Solver Preprocessing ( Zone 0 ) --------------------
Viscous flow: Computing pressure using the ideal gas law
based on the free-stream temperature and a density computed
from the Reynolds number.
Force coefficients computed using free-stream values.

-- Models:
+------------------------------------------------------------------------------+
|          Viscosity Model|        Conductivity Model|              Fluid Model|
+------------------------------------------------------------------------------+
|               SUTHERLAND|          CONSTANT_PRANDTL|             STANDARD_AIR|
+------------------------------------------------------------------------------+
-- Fluid properties:
+------------------------------------------------------------------------------+
|                  Name|    Dim. value|    Ref. value|      Unit|Non-dim. value|
+------------------------------------------------------------------------------+
|        Ref. Viscosity|     3.737e-07|             1|lbf.s/ft^2|     3.737e-07|
|      Sutherland Temp.|        518.67|             1|         R|        518.67|
|     Sutherland Const.|        198.72|             1|         R|        198.72|
+------------------------------------------------------------------------------+
|        Prandtl (Lam.)|             -|             -|         -|          0.72|
|       Prandtl (Turb.)|             -|             -|         -|           0.9|
+------------------------------------------------------------------------------+
|          Gas Constant|       1716.49|             1|lbf.ft/slug.R|       1716.49|
|      Spec. Heat Ratio|             -|             -|         -|           1.4|
+------------------------------------------------------------------------------+
-- Initial and free-stream conditions:
+------------------------------------------------------------------------------+
|                  Name|    Dim. value|    Ref. value|      Unit|Non-dim. value|
+------------------------------------------------------------------------------+
|       Static Pressure|       2116.19|             1|       psf|       2116.19|
|               Density|   0.000742687|             1| slug/ft^3|   0.000742687|
|           Temperature|          1660|             1|         R|          1660|
|          Total Energy|   7.30294e+06|             1|  ft^2/s^2|   7.30294e+06|
|            Velocity-X|       599.184|             1|      ft/s|       599.184|
|            Velocity-Y|             0|             1|      ft/s|             0|
|    Velocity Magnitude|       599.184|             1|      ft/s|       599.184|
+------------------------------------------------------------------------------+
|             Viscosity|   8.25829e-07|             1|lbf.s/ft^2|   8.25829e-07|
|          Conductivity|             -|             1|lbf/ft.s.R|             -|
+------------------------------------------------------------------------------+
|           Mach Number|             -|             -|         -|           0.3|
|       Reynolds Number|             -|             -|         -|         89810|
+------------------------------------------------------------------------------+
Initialize Jacobian structure (Navier-Stokes). MG level: 0.

------------------- Numerics Preprocessing ( Zone 0 ) -------------------

----------------- Integration Preprocessing ( Zone 0 ) ------------------

------------------- Iteration Preprocessing ( Zone 0 ) ------------------
Euler/Navier-Stokes/RANS fluid iteration.

------------------------------ Begin Solver -----------------------------

Simulation Run using the Single-zone Driver
WARNING: SU2 was not compiled for an AVX-capable architecture. Performance could be better,
         see https://su2code.github.io/docs_v7/Build-SU2-Linux-MacOS/#compiler-optimizations
+-----------------------------------------------------------------------------+
|  Inner_Iter|   Time(sec)|    rms[Rho]|   rms[RhoU]|   rms[RhoV]|   rms[RhoE]|
+-----------------------------------------------------------------------------+
|           0|  6.6900e-01|   -4.941275|   -2.536072|  -15.247859|    2.066814|
|           1|  5.8450e-01|   -4.933218|   -1.064840|   -1.695556|    2.067635|
|           2|  5.7267e-01|   -5.041336|   -1.065518|   -1.533352|    2.004442|
|           3|  5.7750e-01|   -5.090552|   -1.082233|   -1.434392|    1.943926|
|           4|  5.7500e-01|   -5.119028|   -1.099975|   -1.396502|    1.906435|
|           5|  5.7533e-01|   -5.125802|   -1.119861|   -1.393688|    1.896781|
|           6|  5.7329e-01|   -5.137874|   -1.140786|   -1.408040|    1.880661|
|           7|  5.7588e-01|   -5.142938|   -1.165888|   -1.432103|    1.874584|
|           8|  5.7967e-01|   -5.148706|   -1.192946|   -1.456815|    1.867606|
|           9|  5.8280e-01|   -5.167257|   -1.221766|   -1.476550|    1.851074|
|          10|  5.8645e-01|   -5.188865|   -1.252736|   -1.489598|    1.831574|
|          11|  5.8833e-01|   -5.205241|   -1.283727|   -1.498587|    1.815913|
|          12|  5.9731e-01|   -5.229306|   -1.309886|   -1.506738|    1.792181|
|          13|  6.0136e-01|   -5.245937|   -1.336704|   -1.515516|    1.775526|
|          14|  6.0507e-01|   -5.257874|   -1.362668|   -1.527642|    1.763412|
|          15|  6.0825e-01|   -5.271817|   -1.384548|   -1.543578|    1.749553|
|          16|  6.1382e-01|   -5.275581|   -1.405670|   -1.564295|    1.746060|
|          17|  6.1811e-01|   -5.282722|   -1.426535|   -1.586692|    1.738649|
|          18|  6.2237e-01|   -5.283232|   -1.446844|   -1.612011|    1.737943|
|          19|  6.2720e-01|   -5.292646|   -1.462124|   -1.638166|    1.728419|
|          20|  6.3538e-01|   -5.309751|   -1.479284|   -1.661205|    1.711332|
|          21|  6.4195e-01|   -5.336522|   -1.491814|   -1.681555|    1.684580|
|          22|  6.4809e-01|   -5.353193|   -1.509116|   -1.694630|    1.666979|
|          23|  6.5717e-01|   -5.382950|   -1.525173|   -1.708957|    1.636751|
|          24|  6.6308e-01|   -5.380554|   -1.549081|   -1.719487|    1.636388|
|          25|  6.7181e-01|   -5.380608|   -1.567945|   -1.735304|    1.633988|
|          26|  6.7878e-01|   -5.390199|   -1.592002|   -1.748599|    1.621891|
|          27|  6.8686e-01|   -5.398881|   -1.614173|   -1.764135|    1.610896|
|          28|  6.9390e-01|   -5.418461|   -1.638661|   -1.779311|    1.590154|
|          29|  7.0160e-01|   -5.440597|   -1.658846|   -1.796476|    1.566924|
|          30|  7.0965e-01|   -5.461547|   -1.679050|   -1.813662|    1.545726|
|          31|  7.1722e-01|   -5.465495|   -1.696100|   -1.828633|    1.543535|
|          32|  7.2579e-01|   -5.481507|   -1.710461|   -1.844090|    1.528016|
|          33|  7.3291e-01|   -5.500152|   -1.726729|   -1.854608|    1.510030|
|          34|  7.4217e-01|   -5.517550|   -1.742579|   -1.862401|    1.492714|
|          35|  7.5039e-01|   -5.546327|   -1.760922|   -1.865145|    1.463232|
|          36|  7.5965e-01|   -5.554371|   -1.781743|   -1.863543|    1.453348|
|          37|  7.7053e-01|   -5.549695|   -1.803912|   -1.864185|    1.454525|
|          38|  7.7882e-01|   -5.566906|   -1.825701|   -1.875401|    1.434106|
|          39|  7.8705e-01|   -5.590257|   -1.846979|   -1.895292|    1.407670|
|          40|  7.9534e-01|   -5.598677|   -1.866225|   -1.923216|    1.396735|
|          41|  8.0245e-01|   -5.604276|   -1.883195|   -1.952632|    1.389481|
|          42|  8.0809e-01|   -5.609428|   -1.897339|   -1.975698|    1.383577|
|          43|  8.1457e-01|   -5.619296|   -1.909034|   -1.987280|    1.373334|
|          44|  8.1942e-01|   -5.630583|   -1.918326|   -1.987577|    1.362112|
|          45|  8.2400e-01|   -5.640005|   -1.924598|   -1.982567|    1.352895|
|          46|  8.2874e-01|   -5.649908|   -1.929821|   -1.977101|    1.342418|
|          47|  8.3313e-01|   -5.661000|   -1.933818|   -1.974939|    1.330996|
|          48|  8.3763e-01|   -5.677386|   -1.938327|   -1.976384|    1.313509|
|          49|  8.4152e-01|   -5.681602|   -1.942789|   -1.979431|    1.308493|
|          50|  8.4569e-01|   -5.687748|   -1.947182|   -1.985670|    1.300831|
|          51|  8.4912e-01|   -5.703575|   -1.953103|   -1.991901|    1.282169|
|          52|  8.5283e-01|   -5.704335|   -1.959072|   -1.997969|    1.279850|
|          53|  8.5615e-01|   -5.705790|   -1.965465|   -2.005102|    1.277067|
|          54|  8.5989e-01|   -5.702304|   -1.973139|   -2.011968|    1.279318|
|          55|  8.6386e-01|   -5.695714|   -1.978132|   -2.021210|    1.286069|
|          56|  8.6675e-01|   -5.706832|   -1.986318|   -2.032359|    1.272756|
|          57|  8.6983e-01|   -5.708558|   -1.993538|   -2.044183|    1.270695|
|          58|  8.7259e-01|   -5.709604|   -1.999447|   -2.055442|    1.269553|
|          59|  8.7448e-01|   -5.718017|   -2.005133|   -2.068577|    1.260656|
|          60|  8.7651e-01|   -5.722130|   -2.009806|   -2.078844|    1.256827|
|          61|  8.7826e-01|   -5.727931|   -2.013491|   -2.090115|    1.250847|
|          62|  8.7995e-01|   -5.736348|   -2.016718|   -2.101817|    1.243252|
|          63|  8.8158e-01|   -5.737477|   -2.019218|   -2.111900|    1.243112|
|          64|  8.8314e-01|   -5.730536|   -2.021246|   -2.123432|    1.252789|
|          65|  8.8468e-01|   -5.730418|   -2.021522|   -2.135627|    1.254599|
|          66|  8.8616e-01|   -5.731672|   -2.021907|   -2.147650|    1.254149|
|          67|  8.8785e-01|   -5.734327|   -2.023732|   -2.157898|    1.252107|
|          68|  8.8946e-01|   -5.756260|   -2.023925|   -2.167270|    1.229702|
|          69|  8.9081e-01|   -5.765065|   -2.024826|   -2.171449|    1.221585|
|          70|  8.9214e-01|   -5.774204|   -2.024463|   -2.172315|    1.212926|
|          71|  8.9362e-01|   -5.784866|   -2.023849|   -2.172104|    1.202184|
|          72|  8.9508e-01|   -5.791673|   -2.023228|   -2.171781|    1.196089|
|          73|  8.9609e-01|   -5.807133|   -2.022879|   -2.173207|    1.179844|
|          74|  8.9788e-01|   -5.806221|   -2.022232|   -2.175794|    1.181026|
|          75|  8.9903e-01|   -5.807506|   -2.022117|   -2.181752|    1.180103|
|          76|  9.0014e-01|   -5.820589|   -2.021903|   -2.191434|    1.166486|
|          77|  9.0133e-01|   -5.819841|   -2.022818|   -2.201882|    1.167156|
|          78|  9.0246e-01|   -5.822266|   -2.023699|   -2.214021|    1.164394|
|          79|  9.0356e-01|   -5.838402|   -2.025496|   -2.227684|    1.146527|
|          80|  9.0468e-01|   -5.840729|   -2.027737|   -2.238935|    1.143460|
|          81|  9.0566e-01|   -5.845659|   -2.031330|   -2.249043|    1.136964|
|          82|  9.0660e-01|   -5.841824|   -2.035157|   -2.255591|    1.139815|
|          83|  9.0792e-01|   -5.837847|   -2.039717|   -2.260686|    1.143136|
|          84|  9.0916e-01|   -5.852522|   -2.045103|   -2.265042|    1.124974|
|          85|  9.1017e-01|   -5.845013|   -2.051092|   -2.264964|    1.131831|
|          86|  9.1117e-01|   -5.851507|   -2.057030|   -2.266775|    1.123224|
|          87|  9.1226e-01|   -5.847833|   -2.064581|   -2.269801|    1.126058|
|          88|  9.1307e-01|   -5.855234|   -2.071010|   -2.275432|    1.115724|
|          89|  9.1421e-01|   -5.858517|   -2.076787|   -2.281075|    1.110060|
|          90|  9.1536e-01|   -5.851678|   -2.081648|   -2.287057|    1.117275|
|          91|  9.1608e-01|   -5.856514|   -2.085914|   -2.295871|    1.111025|
|          92|  9.1681e-01|   -5.851590|   -2.088936|   -2.305181|    1.115836|
|          93|  9.1773e-01|   -5.859490|   -2.091469|   -2.314462|    1.105522|
|          94|  9.1840e-01|   -5.856792|   -2.092237|   -2.322920|    1.108256|
|          95|  9.1957e-01|   -5.865617|   -2.092383|   -2.332570|    1.096224|
|          96|  9.2099e-01|   -5.873030|   -2.092409|   -2.338779|    1.086857|
|          97|  9.2217e-01|   -5.882499|   -2.091533|   -2.344834|    1.074357|
|          98|  9.2333e-01|   -5.871869|   -2.089597|   -2.347072|    1.086910|
|          99|  9.2435e-01|   -5.886050|   -2.088262|   -2.352405|    1.068505|
|         100|  9.2562e-01|   -5.895437|   -2.086510|   -2.355804|    1.056160|
|         101|  9.2675e-01|   -5.890042|   -2.083850|   -2.358199|    1.063026|
|         102|  9.2775e-01|   -5.891452|   -2.080868|   -2.363350|    1.061244|
|         103|  9.2877e-01|   -5.914015|   -2.078419|   -2.370719|    1.032260|
|         104|  9.2975e-01|   -5.920828|   -2.075768|   -2.376157|    1.024356|
|         105|  9.3084e-01|   -5.917014|   -2.072779|   -2.382276|    1.030704|
|         106|  9.3179e-01|   -5.934770|   -2.069981|   -2.389693|    1.008839|
|         107|  9.3270e-01|   -5.933858|   -2.066826|   -2.396001|    1.012018|
|         108|  9.3410e-01|   -5.946880|   -2.064575|   -2.400678|    0.996550|
|         109|  9.3493e-01|   -5.955270|   -2.062642|   -2.405197|    0.986992|
|         110|  9.3600e-01|   -5.968721|   -2.061419|   -2.405193|    0.970950|
|         111|  9.3692e-01|   -5.969758|   -2.060766|   -2.404062|    0.971604|
|         112|  9.3803e-01|   -5.974662|   -2.060952|   -2.399857|    0.966019|
|         113|  9.3901e-01|   -5.965530|   -2.061741|   -2.396374|    0.979991|
|         114|  9.3980e-01|   -5.988446|   -2.064442|   -2.392996|    0.949381|
|         115|  9.4097e-01|   -6.007093|   -2.067812|   -2.388311|    0.922223|
|         116|  9.4202e-01|   -5.994015|   -2.071673|   -2.383867|    0.941144|
|         117|  9.4305e-01|   -6.003893|   -2.076886|   -2.381312|    0.926408|
|         118|  9.4402e-01|   -5.995592|   -2.082476|   -2.381119|    0.937095|
|         119|  9.4490e-01|   -5.996423|   -2.088637|   -2.380530|    0.935438|
|         120|  9.4575e-01|   -5.992887|   -2.094591|   -2.381986|    0.939505|
|         121|  9.4657e-01|   -5.993488|   -2.101656|   -2.385451|    0.938887|
|         122|  9.4751e-01|   -5.982164|   -2.107787|   -2.388915|    0.954957|
|         123|  9.4832e-01|   -5.968057|   -2.114079|   -2.392457|    0.976028|
|         124|  9.4911e-01|   -5.982777|   -2.119831|   -2.400562|    0.956037|
|         125|  9.4988e-01|   -5.967297|   -2.125235|   -2.408009|    0.979410|
|         126|  9.5066e-01|   -5.974759|   -2.130559|   -2.414548|    0.970438|
|         127|  9.5164e-01|   -5.972136|   -2.136033|   -2.421315|    0.976626|
|         128|  9.5238e-01|   -5.964315|   -2.141245|   -2.428240|    0.989516|
|         129|  9.5312e-01|   -5.975930|   -2.147277|   -2.436061|    0.976607|
|         130|  9.5382e-01|   -5.970945|   -2.153192|   -2.441667|    0.985150|
|         131|  9.5441e-01|   -5.964699|   -2.159144|   -2.448869|    0.994288|
|         132|  9.5500e-01|   -5.962718|   -2.166341|   -2.453280|    0.998749|
|         133|  9.5569e-01|   -5.977076|   -2.174053|   -2.461288|    0.981270|
|         134|  9.5624e-01|   -5.977124|   -2.182670|   -2.465742|    0.981382|
|         135|  9.5692e-01|   -5.968067|   -2.191728|   -2.468400|    0.992060|
|         136|  9.5768e-01|   -5.965335|   -2.200550|   -2.472147|    0.994062|
|         137|  9.5854e-01|   -5.963607|   -2.209766|   -2.475979|    0.994889|
|         138|  9.5929e-01|   -5.972916|   -2.219299|   -2.476091|    0.981288|
|         139|  9.5991e-01|   -5.974248|   -2.227777|   -2.479511|    0.977596|
|         140|  9.6043e-01|   -5.970813|   -2.235346|   -2.479677|    0.979794|
|         141|  9.6092e-01|   -5.979516|   -2.242201|   -2.479891|    0.966523|
|         142|  9.6150e-01|   -5.978967|   -2.246996|   -2.475076|    0.967056|
|         143|  9.6191e-01|   -5.967858|   -2.250580|   -2.472882|    0.980865|
|         144|  9.6237e-01|   -5.956085|   -2.251711|   -2.468631|    0.995841|
|         145|  9.6306e-01|   -5.974464|   -2.253052|   -2.472980|    0.970809|
|         146|  9.6406e-01|   -5.998681|   -2.254405|   -2.474978|    0.936908|
|         147|  9.6524e-01|   -5.999622|   -2.252843|   -2.473650|    0.936563|
|         148|  9.6617e-01|   -5.975079|   -2.249904|   -2.471945|    0.972197|
|         149|  9.6696e-01|   -6.018186|   -2.249273|   -2.480658|    0.912800|
|         150|  9.6802e-01|   -6.025780|   -2.247196|   -2.481942|    0.906185|
|         151|  9.6885e-01|   -6.008133|   -2.243534|   -2.487987|    0.932039|
|         152|  9.6976e-01|   -6.045612|   -2.243200|   -2.493203|    0.883629|
|         153|  9.7056e-01|   -6.059518|   -2.241525|   -2.499598|    0.866423|
|         154|  9.7136e-01|   -6.069489|   -2.240586|   -2.504392|    0.856605|
|         155|  9.7215e-01|   -6.068896|   -2.239911|   -2.509570|    0.860636|
|         156|  9.7259e-01|   -6.070734|   -2.239486|   -2.514759|    0.861360|
|         157|  9.7299e-01|   -6.072326|   -2.240159|   -2.519090|    0.862127|
|         158|  9.7375e-01|   -6.079843|   -2.241061|   -2.525105|    0.853745|
|         159|  9.7440e-01|   -6.069268|   -2.242227|   -2.528853|    0.870565|
|         160|  9.7514e-01|   -6.088241|   -2.244781|   -2.538962|    0.846191|
|         161|  9.7578e-01|   -6.107306|   -2.247364|   -2.544342|    0.821909|
|         162|  9.7660e-01|   -6.102671|   -2.249969|   -2.548003|    0.830570|
|         163|  9.7721e-01|   -6.084952|   -2.252028|   -2.551060|    0.856337|
|         164|  9.7792e-01|   -6.085238|   -2.254785|   -2.558926|    0.857658|
|         165|  9.7861e-01|   -6.115422|   -2.257795|   -2.567248|    0.817582|
|         166|  9.7931e-01|   -6.113656|   -2.260850|   -2.570137|    0.821281|
|         167|  9.7990e-01|   -6.113146|   -2.263248|   -2.573723|    0.823877|
|         168|  9.8054e-01|   -6.114945|   -2.266207|   -2.577788|    0.822701|
|         169|  9.8114e-01|   -6.128157|   -2.268638|   -2.581077|    0.806148|
|         170|  9.8199e-01|   -6.123360|   -2.271200|   -2.580582|    0.815299|
|         171|  9.8256e-01|   -6.128798|   -2.273669|   -2.581519|    0.810068|
|         172|  9.8346e-01|   -6.127756|   -2.276367|   -2.581163|    0.813950|
|         173|  9.8409e-01|   -6.131125|   -2.279316|   -2.582591|    0.811097|
|         174|  9.8490e-01|   -6.143014|   -2.282273|   -2.581882|    0.797899|
|         175|  9.8552e-01|   -6.135764|   -2.284532|   -2.580225|    0.809175|
|         176|  9.8613e-01|   -6.133948|   -2.287544|   -2.579401|    0.814644|
|         177|  9.8665e-01|   -6.149346|   -2.290570|   -2.580445|    0.796869|
|         178|  9.8697e-01|   -6.140265|   -2.293746|   -2.577064|    0.811582|
|         179|  9.8723e-01|   -6.133209|   -2.296744|   -2.578423|    0.822304|
|         180|  9.8756e-01|   -6.140706|   -2.299865|   -2.578585|    0.816595|
|         181|  9.8780e-01|   -6.146472|   -2.303240|   -2.579717|    0.812736|
|         182|  9.8838e-01|   -6.158607|   -2.306994|   -2.582347|    0.799955|
|         183|  9.8886e-01|   -6.126122|   -2.309703|   -2.577286|    0.842065|
|         184|  9.8910e-01|   -6.132252|   -2.312452|   -2.584498|    0.836526|
|         185|  9.8932e-01|   -6.146571|   -2.315850|   -2.585562|    0.822672|
|         186|  9.8988e-01|   -6.143523|   -2.319380|   -2.589645|    0.828048|
|         187|  9.9010e-01|   -6.114667|   -2.322015|   -2.587077|    0.863470|
|         188|  9.9056e-01|   -6.130698|   -2.324953|   -2.591320|    0.847711|
|         189|  9.9103e-01|   -6.108433|   -2.326301|   -2.597433|    0.872425|
|         190|  9.9173e-01|   -6.118265|   -2.328688|   -2.598376|    0.864812|
|         191|  9.9226e-01|   -6.128289|   -2.331748|   -2.607909|    0.853440|
|         192|  9.9270e-01|   -6.126415|   -2.335186|   -2.612789|    0.856241|
|         193|  9.9322e-01|   -6.140042|   -2.337831|   -2.620317|    0.841945|
|         194|  9.9374e-01|   -6.128665|   -2.339653|   -2.622721|    0.855368|
|         195|  9.9394e-01|   -6.114191|   -2.340555|   -2.625728|    0.871997|
|         196|  9.9437e-01|   -6.124540|   -2.341706|   -2.628717|    0.861692|
|         197|  9.9518e-01|   -6.129373|   -2.342507|   -2.635635|    0.857234|
|         198|  9.9575e-01|   -6.139254|   -2.342670|   -2.637537|    0.846795|
|         199|  9.9640e-01|   -6.120976|   -2.342430|   -2.634845|    0.867982|
|         200|  9.9696e-01|   -6.119089|   -2.341847|   -2.637691|    0.871075|
|         201|  9.9754e-01|   -6.148828|   -2.341369|   -2.639387|    0.840711|
|         202|  9.9814e-01|   -6.127512|   -2.339623|   -2.635711|    0.864351|
|         203|  9.9853e-01|   -6.135899|   -2.337876|   -2.632531|    0.857662|
|         204|  9.9904e-01|   -6.125160|   -2.335758|   -2.631195|    0.869984|
|         205|  9.9953e-01|   -6.122190|   -2.334127|   -2.627242|    0.874998|
|         206|  9.9995e-01|   -6.138350|   -2.332116|   -2.627382|    0.859931|
|         207|  1.0003e+00|   -6.136723|   -2.329960|   -2.622977|    0.863275|
|         208|  1.0008e+00|   -6.117031|   -2.328519|   -2.615955|    0.884142|
|         209|  1.0012e+00|   -6.140130|   -2.328522|   -2.612618|    0.862648|
|         210|  1.0018e+00|   -6.157714|   -2.328190|   -2.610294|    0.846721|
|         211|  1.0023e+00|   -6.169274|   -2.328649|   -2.604584|    0.836483|
|         212|  1.0030e+00|   -6.171847|   -2.329387|   -2.599629|    0.835043|
|         213|  1.0035e+00|   -6.158459|   -2.329423|   -2.595019|    0.849335|
|         214|  1.0040e+00|   -6.177982|   -2.330682|   -2.590792|    0.831176|
|         215|  1.0044e+00|   -6.181957|   -2.331206|   -2.590499|    0.826950|
|         216|  1.0048e+00|   -6.184534|   -2.332391|   -2.587098|    0.825648|
|         217|  1.0053e+00|   -6.191329|   -2.333452|   -2.588424|    0.818678|
|         218|  1.0057e+00|   -6.192297|   -2.334594|   -2.588512|    0.817130|
|         219|  1.0061e+00|   -6.184521|   -2.334559|   -2.587708|    0.824428|
|         220|  1.0068e+00|   -6.190058|   -2.334748|   -2.589235|    0.818732|
|         221|  1.0072e+00|   -6.197012|   -2.335298|   -2.590346|    0.810837|
|         222|  1.0076e+00|   -6.200229|   -2.334718|   -2.591789|    0.806949|
|         223|  1.0080e+00|   -6.207966|   -2.334037|   -2.593995|    0.798542|
|         224|  1.0083e+00|   -6.201641|   -2.333608|   -2.596823|    0.803258|
|         225|  1.0087e+00|   -6.226038|   -2.332796|   -2.600705|    0.778023|
|         226|  1.0092e+00|   -6.231309|   -2.331431|   -2.604621|    0.770333|
|         227|  1.0095e+00|   -6.234052|   -2.330710|   -2.609635|    0.765842|
|         228|  1.0100e+00|   -6.238431|   -2.329568|   -2.617168|    0.759569|
|         229|  1.0104e+00|   -6.243908|   -2.328875|   -2.623675|    0.751664|
|         230|  1.0108e+00|   -6.222858|   -2.327551|   -2.628005|    0.772496|
|         231|  1.0112e+00|   -6.211656|   -2.326688|   -2.639221|    0.780663|
|         232|  1.0117e+00|   -6.223725|   -2.327158|   -2.650975|    0.765554|
|         233|  1.0121e+00|   -6.228427|   -2.327250|   -2.661485|    0.756769|
|         234|  1.0124e+00|   -6.191818|   -2.327021|   -2.669868|    0.795279|
|         235|  1.0130e+00|   -6.212461|   -2.328429|   -2.683922|    0.768497|
|         236|  1.0136e+00|   -6.239810|   -2.330091|   -2.698108|    0.734506|
|         237|  1.0140e+00|   -6.224387|   -2.330977|   -2.703849|    0.748804|
|         238|  1.0144e+00|   -6.234900|   -2.332207|   -2.712488|    0.733608|
|         239|  1.0148e+00|   -6.238858|   -2.333865|   -2.715611|    0.726038|
|         240|  1.0152e+00|   -6.232847|   -2.335417|   -2.715584|    0.731155|
|         241|  1.0155e+00|   -6.219676|   -2.336370|   -2.709767|    0.746198|
|         242|  1.0160e+00|   -6.227400|   -2.337870|   -2.708646|    0.733923|
|         243|  1.0163e+00|   -6.253374|   -2.341205|   -2.701698|    0.700538|
|         244|  1.0168e+00|   -6.221404|   -2.342488|   -2.688009|    0.740006|
|         245|  1.0172e+00|   -6.227374|   -2.344304|   -2.681889|    0.729055|
|         246|  1.0177e+00|   -6.251233|   -2.347658|   -2.674314|    0.697559|
|         247|  1.0181e+00|   -6.249241|   -2.350273|   -2.663784|    0.698581|
|         248|  1.0185e+00|   -6.258492|   -2.353046|   -2.654920|    0.685695|
|         249|  1.0188e+00|   -6.263536|   -2.355947|   -2.646095|    0.678629|
|         250|  1.0192e+00|   -6.270713|   -2.358727|   -2.637866|    0.666477|
+-----------------------------------------------------------------------+
|        File Writing Summary       |              Filename             |
+-----------------------------------------------------------------------+
|SU2 binary restart                 |restart_flow.dat                   |
|Paraview                           |flow.vtu                           |
|CSV file                           |surface_flow.csv                   |
+-----------------------------------------------------------------------+
+-----------------------------------------------------------------------------+
|  Inner_Iter|   Time(sec)|    rms[Rho]|   rms[RhoU]|   rms[RhoV]|   rms[RhoE]|
+-----------------------------------------------------------------------------+
|         251|  1.0203e+00|   -6.267543|   -2.362235|   -2.631058|    0.669882|
|         252|  1.0207e+00|   -6.275993|   -2.365836|   -2.625162|    0.655949|
|         253|  1.0210e+00|   -6.267052|   -2.369229|   -2.618668|    0.666685|
|         254|  1.0213e+00|   -6.259714|   -2.373367|   -2.613302|    0.674682|
|         255|  1.0217e+00|   -6.278411|   -2.377838|   -2.611391|    0.645675|
|         256|  1.0219e+00|   -6.293333|   -2.382200|   -2.609686|    0.621005|
|         257|  1.0223e+00|   -6.283522|   -2.386474|   -2.607484|    0.632866|
|         258|  1.0227e+00|   -6.297966|   -2.390966|   -2.607737|    0.608187|
|         259|  1.0233e+00|   -6.287896|   -2.394880|   -2.607664|    0.621550|
|         260|  1.0238e+00|   -6.290339|   -2.399101|   -2.609074|    0.615050|
|         261|  1.0242e+00|   -6.270722|   -2.403161|   -2.610318|    0.642930|
|         262|  1.0246e+00|   -6.276121|   -2.406724|   -2.615673|    0.632869|
|         263|  1.0251e+00|   -6.277438|   -2.411014|   -2.620472|    0.629811|
|         264|  1.0255e+00|   -6.269035|   -2.414632|   -2.627061|    0.639820|
|         265|  1.0259e+00|   -6.255918|   -2.417702|   -2.634135|    0.659114|
|         266|  1.0263e+00|   -6.257574|   -2.421435|   -2.642865|    0.654604|
|         267|  1.0267e+00|   -6.247588|   -2.424454|   -2.650306|    0.669236|
|         268|  1.0271e+00|   -6.240647|   -2.427622|   -2.662277|    0.678067|
|         269|  1.0275e+00|   -6.251570|   -2.431205|   -2.673546|    0.660789|
|         270|  1.0278e+00|   -6.245469|   -2.433925|   -2.683966|    0.668978|
|         271|  1.0282e+00|   -6.236523|   -2.437072|   -2.693754|    0.682202|
|         272|  1.0286e+00|   -6.226205|   -2.439782|   -2.702450|    0.696577|
|         273|  1.0290e+00|   -6.205877|   -2.442264|   -2.710219|    0.726099|
|         274|  1.0284e+00|   -6.207632|   -2.445539|   -2.718755|    0.722753|
|         275|  1.0272e+00|   -6.227224|   -2.447470|   -2.725255|    0.693639|
|         276|  1.0261e+00|   -6.244931|   -2.448539|   -2.727882|    0.665749|
|         277|  1.0249e+00|   -6.241660|   -2.449153|   -2.727810|    0.670879|
|         278|  1.0239e+00|   -6.239858|   -2.449913|   -2.729261|    0.673403|
|         279|  1.0229e+00|   -6.242092|   -2.450752|   -2.731517|    0.669627|
|         280|  1.0220e+00|   -6.242212|   -2.451716|   -2.734118|    0.669233|
|         281|  1.0212e+00|   -6.237150|   -2.452641|   -2.734865|    0.676743|
|         282|  1.0204e+00|   -6.241337|   -2.453692|   -2.736014|    0.670234|
|         283|  1.0196e+00|   -6.233576|   -2.454626|   -2.736325|    0.681738|
|         284|  1.0188e+00|   -6.231398|   -2.455267|   -2.734307|    0.685402|
|         285|  1.0181e+00|   -6.229824|   -2.456388|   -2.734627|    0.687035|
|         286|  1.0175e+00|   -6.213504|   -2.457310|   -2.733390|    0.711379|
|         287|  1.0162e+00|   -6.228418|   -2.458890|   -2.735194|    0.689112|
|         288|  1.0150e+00|   -6.228742|   -2.460123|   -2.732417|    0.688905|
|         289|  1.0139e+00|   -6.235237|   -2.460693|   -2.733175|    0.678209|
|         290|  1.0128e+00|   -6.233190|   -2.461272|   -2.733481|    0.681265|
|         291|  1.0118e+00|   -6.232405|   -2.462055|   -2.733077|    0.682245|
|         292|  1.0107e+00|   -6.234351|   -2.463183|   -2.732588|    0.679319|
|         293|  1.0098e+00|   -6.230939|   -2.463909|   -2.731147|    0.684328|
|         294|  1.0084e+00|   -6.229362|   -2.464696|   -2.728043|    0.686858|
|         295|  1.0067e+00|   -6.233645|   -2.464476|   -2.727225|    0.680242|
|         296|  1.0051e+00|   -6.233892|   -2.464963|   -2.726580|    0.679909|
|         297|  1.0035e+00|   -6.235213|   -2.465152|   -2.725600|    0.677775|
|         298|  1.0017e+00|   -6.235640|   -2.465348|   -2.725398|    0.676886|
|         299|  9.9968e-01|   -6.235834|   -2.465498|   -2.725370|    0.676516|
|         300|  9.9775e-01|   -6.236392|   -2.465601|   -2.725320|    0.675643|
|         301|  9.9575e-01|   -6.236625|   -2.465709|   -2.725247|    0.675290|
|         302|  9.9370e-01|   -6.236684|   -2.465819|   -2.725195|    0.675147|
|         303|  9.9162e-01|   -6.236780|   -2.465877|   -2.725168|    0.675003|
|         304|  9.8961e-01|   -6.236800|   -2.465933|   -2.725144|    0.674942|
|         305|  9.8758e-01|   -6.236829|   -2.465990|   -2.725107|    0.674905|
|         306|  9.8554e-01|   -6.236839|   -2.466043|   -2.725061|    0.674880|
|         307|  9.8351e-01|   -6.236837|   -2.466096|   -2.725011|    0.674888|
|         308|  9.8164e-01|   -6.236819|   -2.466146|   -2.724939|    0.674894|
|         309|  9.7978e-01|   -6.236768|   -2.466197|   -2.724861|    0.674968|
|         310|  9.7798e-01|   -6.236728|   -2.466240|   -2.724800|    0.675001|
|         311|  9.7611e-01|   -6.236732|   -2.466284|   -2.724760|    0.675017|
|         312|  9.7418e-01|   -6.236680|   -2.466324|   -2.724681|    0.675081|
|         313|  9.7228e-01|   -6.236755|   -2.466346|   -2.724640|    0.675020|
|         314|  9.7038e-01|   -6.236791|   -2.466353|   -2.724625|    0.674954|
|         315|  9.6834e-01|   -6.236811|   -2.466364|   -2.724604|    0.674939|
|         316|  9.6633e-01|   -6.236823|   -2.466370|   -2.724591|    0.674906|
|         317|  9.6428e-01|   -6.236836|   -2.466379|   -2.724582|    0.674894|
|         318|  9.6232e-01|   -6.236834|   -2.466387|   -2.724570|    0.674886|
|         319|  9.6029e-01|   -6.236846|   -2.466395|   -2.724563|    0.674873|
|         320|  9.5836e-01|   -6.236846|   -2.466403|   -2.724554|    0.674868|
|         321|  9.5640e-01|   -6.236855|   -2.466411|   -2.724549|    0.674859|
|         322|  9.5447e-01|   -6.236854|   -2.466420|   -2.724542|    0.674859|
|         323|  9.5250e-01|   -6.236860|   -2.466428|   -2.724534|    0.674853|
|         324|  9.5061e-01|   -6.236864|   -2.466436|   -2.724527|    0.674851|
|         325|  9.4867e-01|   -6.236869|   -2.466445|   -2.724524|    0.674846|
|         326|  9.4678e-01|   -6.236870|   -2.466454|   -2.724522|    0.674846|
|         327|  9.4488e-01|   -6.236870|   -2.466463|   -2.724519|    0.674849|
|         328|  9.4305e-01|   -6.236870|   -2.466472|   -2.724516|    0.674849|
|         329|  9.4114e-01|   -6.236874|   -2.466482|   -2.724519|    0.674844|
|         330|  9.3930e-01|   -6.236874|   -2.466492|   -2.724522|    0.674845|
|         331|  9.3749e-01|   -6.236874|   -2.466502|   -2.724526|    0.674846|
|         332|  9.3562e-01|   -6.236871|   -2.466513|   -2.724530|    0.674849|
|         333|  9.3382e-01|   -6.236871|   -2.466524|   -2.724535|    0.674851|
|         334|  9.3203e-01|   -6.236868|   -2.466535|   -2.724543|    0.674855|
|         335|  9.3019e-01|   -6.236864|   -2.466547|   -2.724552|    0.674860|
|         336|  9.2841e-01|   -6.236860|   -2.466558|   -2.724561|    0.674865|
|         337|  9.2665e-01|   -6.236857|   -2.466570|   -2.724572|    0.674868|
|         338|  9.2487e-01|   -6.236854|   -2.466582|   -2.724583|    0.674873|
|         339|  9.2311e-01|   -6.236850|   -2.466595|   -2.724594|    0.674878|
|         340|  9.2138e-01|   -6.236840|   -2.466609|   -2.724607|    0.674890|
|         341|  9.1963e-01|   -6.236837|   -2.466622|   -2.724618|    0.674894|
|         342|  9.1792e-01|   -6.236838|   -2.466634|   -2.724629|    0.674893|
|         343|  9.1624e-01|   -6.236834|   -2.466646|   -2.724642|    0.674898|
|         344|  9.1454e-01|   -6.236830|   -2.466659|   -2.724655|    0.674904|
|         345|  9.1284e-01|   -6.236824|   -2.466672|   -2.724669|    0.674910|
|         346|  9.1115e-01|   -6.236817|   -2.466686|   -2.724685|    0.674919|
|         347|  9.0951e-01|   -6.236807|   -2.466700|   -2.724700|    0.674928|
|         348|  9.0785e-01|   -6.236794|   -2.466714|   -2.724716|    0.674937|
|         349|  9.0620e-01|   -6.236777|   -2.466729|   -2.724733|    0.674949|
|         350|  9.0455e-01|   -6.236784|   -2.466744|   -2.724742|    0.674948|
|         351|  9.0291e-01|   -6.236795|   -2.466758|   -2.724748|    0.674949|
|         352|  9.0128e-01|   -6.236796|   -2.466772|   -2.724755|    0.674955|
|         353|  8.9985e-01|   -6.236794|   -2.466786|   -2.724764|    0.674961|
|         354|  8.9828e-01|   -6.236790|   -2.466800|   -2.724773|    0.674968|
|         355|  8.9664e-01|   -6.236785|   -2.466814|   -2.724782|    0.674975|
|         356|  8.9508e-01|   -6.236781|   -2.466828|   -2.724790|    0.674982|
|         357|  8.9346e-01|   -6.236776|   -2.466842|   -2.724798|    0.674989|
|         358|  8.9188e-01|   -6.236771|   -2.466856|   -2.724805|    0.674997|
|         359|  8.9032e-01|   -6.236766|   -2.466870|   -2.724811|    0.675005|
|         360|  8.8876e-01|   -6.236760|   -2.466885|   -2.724815|    0.675014|
|         361|  8.8721e-01|   -6.236754|   -2.466901|   -2.724819|    0.675025|
|         362|  8.8593e-01|   -6.236746|   -2.466918|   -2.724821|    0.675036|
|         363|  8.8491e-01|   -6.236738|   -2.466935|   -2.724821|    0.675049|
|         364|  8.8351e-01|   -6.236729|   -2.466953|   -2.724819|    0.675062|
|         365|  8.8213e-01|   -6.236722|   -2.466972|   -2.724818|    0.675073|
|         366|  8.8074e-01|   -6.236716|   -2.466992|   -2.724816|    0.675082|
|         367|  8.7935e-01|   -6.236708|   -2.467013|   -2.724813|    0.675091|
|         368|  8.7792e-01|   -6.236702|   -2.467036|   -2.724809|    0.675099|
|         369|  8.7658e-01|   -6.236696|   -2.467059|   -2.724804|    0.675107|
|         370|  8.7520e-01|   -6.236688|   -2.467083|   -2.724798|    0.675117|
|         371|  8.7386e-01|   -6.236683|   -2.467109|   -2.724791|    0.675125|
|         372|  8.7253e-01|   -6.236674|   -2.467136|   -2.724783|    0.675137|
|         373|  8.7117e-01|   -6.236667|   -2.467164|   -2.724772|    0.675148|
|         374|  8.6983e-01|   -6.236658|   -2.467193|   -2.724759|    0.675162|
|         375|  8.6851e-01|   -6.236646|   -2.467224|   -2.724745|    0.675179|
|         376|  8.6716e-01|   -6.236634|   -2.467255|   -2.724728|    0.675195|
|         377|  8.6586e-01|   -6.236624|   -2.467288|   -2.724710|    0.675212|
|         378|  8.6455e-01|   -6.236612|   -2.467322|   -2.724690|    0.675230|
|         379|  8.6323e-01|   -6.236597|   -2.467357|   -2.724664|    0.675249|
|         380|  8.6196e-01|   -6.236574|   -2.467393|   -2.724634|    0.675278|
|         381|  8.6064e-01|   -6.236561|   -2.467431|   -2.724596|    0.675299|
|         382|  8.5933e-01|   -6.236532|   -2.467473|   -2.724554|    0.675342|
|         383|  8.5808e-01|   -6.236516|   -2.467517|   -2.724508|    0.675383|
|         384|  8.5680e-01|   -6.236526|   -2.467560|   -2.724456|    0.675377|
|         385|  8.5552e-01|   -6.236505|   -2.467604|   -2.724399|    0.675416|
|         386|  8.5428e-01|   -6.236485|   -2.467649|   -2.724342|    0.675448|
|         387|  8.5301e-01|   -6.236476|   -2.467697|   -2.724285|    0.675510|
|         388|  8.5187e-01|   -6.236435|   -2.467748|   -2.724194|    0.675527|
|         389|  8.5072e-01|   -6.236411|   -2.467797|   -2.724127|    0.675640|
|         390|  8.4959e-01|   -6.236342|   -2.467849|   -2.724019|    0.675644|
|         391|  8.4845e-01|   -6.236350|   -2.467902|   -2.723932|    0.675691|
|         392|  8.4734e-01|   -6.236285|   -2.467955|   -2.723816|    0.675749|
|         393|  8.4622e-01|   -6.236270|   -2.468010|   -2.723722|    0.675841|
|         394|  8.4509e-01|   -6.236227|   -2.468066|   -2.723529|    0.675858|
|         395|  8.4400e-01|   -6.236218|   -2.468123|   -2.723383|    0.675950|
|         396|  8.4288e-01|   -6.236174|   -2.468183|   -2.723217|    0.675948|
|         397|  8.4182e-01|   -6.236152|   -2.468244|   -2.723046|    0.676015|
|         398|  8.4073e-01|   -6.236093|   -2.468307|   -2.722849|    0.676069|
|         399|  8.3968e-01|   -6.236028|   -2.468373|   -2.722625|    0.676178|
|         400|  8.3856e-01|   -6.235950|   -2.468441|   -2.722365|    0.676287|
|         401|  8.3749e-01|   -6.235932|   -2.468510|   -2.722083|    0.676327|
|         402|  8.3653e-01|   -6.235894|   -2.468579|   -2.721798|    0.676359|
|         403|  8.3559e-01|   -6.235882|   -2.468647|   -2.721454|    0.676416|
|         404|  8.3460e-01|   -6.235857|   -2.468719|   -2.721133|    0.676411|
|         405|  8.3367e-01|   -6.235830|   -2.468793|   -2.720805|    0.676468|
|         406|  8.3272e-01|   -6.235751|   -2.468868|   -2.720462|    0.676590|
|         407|  8.3178e-01|   -6.235645|   -2.468949|   -2.720081|    0.676768|
|         408|  8.3084e-01|   -6.235593|   -2.469050|   -2.719686|    0.676798|
|         409|  8.2991e-01|   -6.235503|   -2.469156|   -2.719293|    0.676945|
|         410|  8.2900e-01|   -6.235518|   -2.469267|   -2.718901|    0.676965|
|         411|  8.2808e-01|   -6.235514|   -2.469376|   -2.718489|    0.676965|
|         412|  8.2718e-01|   -6.235421|   -2.469485|   -2.718067|    0.677112|
|         413|  8.2624e-01|   -6.235323|   -2.469602|   -2.717588|    0.677256|
|         414|  8.2545e-01|   -6.235010|   -2.469708|   -2.717008|    0.677759|
|         415|  8.2463e-01|   -6.234714|   -2.469811|   -2.716389|    0.678201|
|         416|  8.2385e-01|   -6.234569|   -2.469929|   -2.715506|    0.678433|
|         417|  8.2304e-01|   -6.234503|   -2.470050|   -2.714586|    0.678576|
|         418|  8.2226e-01|   -6.234163|   -2.470139|   -2.713582|    0.679042|
|         419|  8.2142e-01|   -6.233792|   -2.470227|   -2.712424|    0.679718|
|         420|  8.2067e-01|   -6.234011|   -2.470335|   -2.711509|    0.679261|
|         421|  8.1998e-01|   -6.233876|   -2.470524|   -2.710657|    0.679541|
|         422|  8.1929e-01|   -6.233580|   -2.470770|   -2.709990|    0.679937|
|         423|  8.1862e-01|   -6.233318|   -2.470970|   -2.709306|    0.680285|
|         424|  8.1794e-01|   -6.233324|   -2.471184|   -2.709024|    0.680229|
|         425|  8.1727e-01|   -6.232619|   -2.471347|   -2.708703|    0.681242|
|         426|  8.1659e-01|   -6.232237|   -2.471588|   -2.708011|    0.682006|
|         427|  8.1594e-01|   -6.232327|   -2.471844|   -2.707235|    0.681854|
|         428|  8.1537e-01|   -6.233481|   -2.472187|   -2.706606|    0.680183|
|         429|  8.1479e-01|   -6.231686|   -2.472394|   -2.705634|    0.682963|
|         430|  8.1424e-01|   -6.231613|   -2.472675|   -2.704367|    0.683150|
|         431|  8.1366e-01|   -6.232362|   -2.473228|   -2.703541|    0.681852|
|         432|  8.1311e-01|   -6.231505|   -2.473548|   -2.702308|    0.683372|
|         433|  8.1253e-01|   -6.230929|   -2.473731|   -2.701413|    0.684215|
|         434|  8.1210e-01|   -6.230031|   -2.474038|   -2.700397|    0.685480|
|         435|  8.1164e-01|   -6.229733|   -2.474449|   -2.699736|    0.686410|
|         436|  8.1117e-01|   -6.231041|   -2.474971|   -2.697971|    0.684488|
|         437|  8.1075e-01|   -6.228725|   -2.474950|   -2.695279|    0.687932|
|         438|  8.1033e-01|   -6.226763|   -2.474963|   -2.693535|    0.690953|
|         439|  8.0998e-01|   -6.226619|   -2.475361|   -2.690514|    0.691565|
|         440|  8.0962e-01|   -6.223986|   -2.475358|   -2.688397|    0.695047|
|         441|  8.0928e-01|   -6.226276|   -2.476067|   -2.686886|    0.691618|
|         442|  8.0896e-01|   -6.228247|   -2.476885|   -2.685666|    0.689022|
|         443|  8.0859e-01|   -6.227573|   -2.477483|   -2.682779|    0.690266|
|         444|  8.0837e-01|   -6.220705|   -2.477488|   -2.679751|    0.700606|
|         445|  8.0812e-01|   -6.225761|   -2.478355|   -2.678253|    0.693127|
|         446|  8.0790e-01|   -6.227202|   -2.478954|   -2.677344|    0.691153|
|         447|  8.0765e-01|   -6.225751|   -2.479759|   -2.675700|    0.693432|
|         448|  8.0752e-01|   -6.227163|   -2.480644|   -2.672951|    0.691724|
|         449|  8.0742e-01|   -6.222164|   -2.480914|   -2.670010|    0.699257|
|         450|  8.0726e-01|   -6.226053|   -2.481744|   -2.667347|    0.693763|
|         451|  8.0714e-01|   -6.223993|   -2.482432|   -2.664588|    0.696905|
|         452|  8.0715e-01|   -6.215686|   -2.482924|   -2.659235|    0.709457|
|         453|  8.0716e-01|   -6.218184|   -2.483289|   -2.658265|    0.705745|
|         454|  8.0721e-01|   -6.213422|   -2.483969|   -2.654330|    0.713208|
|         455|  8.0715e-01|   -6.212942|   -2.484730|   -2.652467|    0.714275|
|         456|  8.0725e-01|   -6.212838|   -2.485422|   -2.647674|    0.715142|
|         457|  8.0731e-01|   -6.219580|   -2.486004|   -2.646574|    0.705657|
|         458|  8.0736e-01|   -6.214235|   -2.485845|   -2.645433|    0.713743|
|         459|  8.0718e-01|   -6.211169|   -2.486934|   -2.643468|    0.718748|
|         460|  8.0666e-01|   -6.224701|   -2.487513|   -2.641194|    0.699567|
|         461|  8.0597e-01|   -6.233281|   -2.487540|   -2.640688|    0.686751|
|         462|  8.0521e-01|   -6.235903|   -2.487508|   -2.640855|    0.682774|
|         463|  8.0435e-01|   -6.236793|   -2.487445|   -2.640861|    0.681458|
|         464|  8.0343e-01|   -6.237337|   -2.487385|   -2.640869|    0.680673|
|         465|  8.0247e-01|   -6.237340|   -2.487364|   -2.640878|    0.680544|
|         466|  8.0155e-01|   -6.237681|   -2.487315|   -2.640870|    0.680220|
|         467|  8.0061e-01|   -6.237375|   -2.487297|   -2.640865|    0.680451|
|         468|  7.9970e-01|   -6.237764|   -2.487258|   -2.640879|    0.680039|
|         469|  7.9873e-01|   -6.237759|   -2.487247|   -2.640871|    0.680000|
|         470|  7.9773e-01|   -6.237851|   -2.487233|   -2.640868|    0.679905|
|         471|  7.9674e-01|   -6.237894|   -2.487222|   -2.640867|    0.679848|
|         472|  7.9575e-01|   -6.237930|   -2.487213|   -2.640879|    0.679778|
|         473|  7.9476e-01|   -6.237964|   -2.487205|   -2.640891|    0.679726|
|         474|  7.9378e-01|   -6.238001|   -2.487197|   -2.640902|    0.679685|
|         475|  7.9280e-01|   -6.238035|   -2.487188|   -2.640916|    0.679650|
|         476|  7.9192e-01|   -6.238066|   -2.487179|   -2.640934|    0.679623|
|         477|  7.9102e-01|   -6.238086|   -2.487170|   -2.640956|    0.679610|
|         478|  7.9015e-01|   -6.238093|   -2.487159|   -2.640982|    0.679619|
|         479|  7.8926e-01|   -6.238074|   -2.487148|   -2.641007|    0.679653|
|         480|  7.8840e-01|   -6.238040|   -2.487137|   -2.641032|    0.679710|
|         481|  7.8750e-01|   -6.237991|   -2.487126|   -2.641057|    0.679787|
|         482|  7.8665e-01|   -6.237917|   -2.487117|   -2.641079|    0.679881|
|         483|  7.8576e-01|   -6.237818|   -2.487111|   -2.641097|    0.679987|
|         484|  7.8489e-01|   -6.237772|   -2.487110|   -2.641107|    0.680089|
|         485|  7.8406e-01|   -6.237749|   -2.487115|   -2.641106|    0.680149|
|         486|  7.8322e-01|   -6.237703|   -2.487127|   -2.641101|    0.680223|
|         487|  7.8269e-01|   -6.237707|   -2.487146|   -2.641090|    0.680216|
|         488|  7.8192e-01|   -6.237723|   -2.487171|   -2.641068|    0.680196|
|         489|  7.8106e-01|   -6.237753|   -2.487201|   -2.641038|    0.680167|
|         490|  7.8023e-01|   -6.237790|   -2.487234|   -2.640999|    0.680123|
|         491|  7.7940e-01|   -6.237825|   -2.487270|   -2.640951|    0.680092|
|         492|  7.7855e-01|   -6.237839|   -2.487307|   -2.640886|    0.680083|
|         493|  7.7773e-01|   -6.237824|   -2.487347|   -2.640810|    0.680105|
|         494|  7.7689e-01|   -6.237876|   -2.487383|   -2.640711|    0.680057|
|         495|  7.7608e-01|   -6.237958|   -2.487419|   -2.640619|    0.679954|
|         496|  7.7521e-01|   -6.238019|   -2.487437|   -2.640575|    0.679860|
|         497|  7.7432e-01|   -6.238054|   -2.487449|   -2.640543|    0.679804|
|         498|  7.7342e-01|   -6.238083|   -2.487460|   -2.640511|    0.679761|
|         499|  7.7253e-01|   -6.238103|   -2.487471|   -2.640478|    0.679725|
|         500|  7.7168e-01|   -6.238120|   -2.487482|   -2.640444|    0.679695|
+-----------------------------------------------------------------------+
|        File Writing Summary       |              Filename             |
+-----------------------------------------------------------------------+
|SU2 binary restart                 |restart_flow.dat                   |
|Paraview                           |flow.vtu                           |
|CSV file                           |surface_flow.csv                   |
+-----------------------------------------------------------------------+
+-----------------------------------------------------------------------------+
|  Inner_Iter|   Time(sec)|    rms[Rho]|   rms[RhoU]|   rms[RhoV]|   rms[RhoE]|
+-----------------------------------------------------------------------------+
|         501|  7.7120e-01|   -6.238129|   -2.487492|   -2.640408|    0.679678|
|         502|  7.7031e-01|   -6.238132|   -2.487502|   -2.640373|    0.679673|
|         503|  7.6947e-01|   -6.238120|   -2.487514|   -2.640336|    0.679713|
|         504|  7.6860e-01|   -6.238149|   -2.487524|   -2.640310|    0.679632|
|         505|  7.6774e-01|   -6.238147|   -2.487533|   -2.640276|    0.679628|
|         506|  7.6687e-01|   -6.238155|   -2.487543|   -2.640240|    0.679623|
|         507|  7.6602e-01|   -6.238172|   -2.487550|   -2.640197|    0.679606|
|         508|  7.6513e-01|   -6.238182|   -2.487559|   -2.640159|    0.679595|
|         509|  7.6427e-01|   -6.238194|   -2.487567|   -2.640124|    0.679580|
|         510|  7.6342e-01|   -6.238199|   -2.487576|   -2.640091|    0.679567|
|         511|  7.6257e-01|   -6.238200|   -2.487584|   -2.640058|    0.679561|
|         512|  7.6173e-01|   -6.238194|   -2.487592|   -2.640026|    0.679562|
|         513|  7.6090e-01|   -6.238200|   -2.487600|   -2.639996|    0.679550|
|         514|  7.6004e-01|   -6.238207|   -2.487608|   -2.639967|    0.679538|
|         515|  7.5920e-01|   -6.238214|   -2.487616|   -2.639939|    0.679526|
|         516|  7.5839e-01|   -6.238227|   -2.487624|   -2.639912|    0.679510|
|         517|  7.5757e-01|   -6.238229|   -2.487632|   -2.639887|    0.679512|
|         518|  7.5675e-01|   -6.238230|   -2.487639|   -2.639862|    0.679512|
|         519|  7.5593e-01|   -6.238232|   -2.487645|   -2.639837|    0.679508|
|         520|  7.5512e-01|   -6.238233|   -2.487652|   -2.639814|    0.679504|
|         521|  7.5430e-01|   -6.238237|   -2.487659|   -2.639790|    0.679500|
|         522|  7.5348e-01|   -6.238239|   -2.487665|   -2.639766|    0.679497|
|         523|  7.5268e-01|   -6.238241|   -2.487672|   -2.639741|    0.679496|
|         524|  7.5187e-01|   -6.238189|   -2.487676|   -2.639712|    0.679567|
|         525|  7.5106e-01|   -6.238194|   -2.487682|   -2.639690|    0.679552|
|         526|  7.5026e-01|   -6.238237|   -2.487690|   -2.639668|    0.679501|
|         527|  7.4947e-01|   -6.238237|   -2.487696|   -2.639639|    0.679502|
|         528|  7.4867e-01|   -6.238229|   -2.487701|   -2.639611|    0.679509|
|         529|  7.4788e-01|   -6.238233|   -2.487707|   -2.639582|    0.679508|
|         530|  7.4708e-01|   -6.238189|   -2.487710|   -2.639551|    0.679559|
|         531|  7.4630e-01|   -6.238235|   -2.487718|   -2.639527|    0.679513|
|         532|  7.4552e-01|   -6.238205|   -2.487721|   -2.639495|    0.679546|
|         533|  7.4474e-01|   -6.238237|   -2.487728|   -2.639468|    0.679514|
|         534|  7.4396e-01|   -6.238212|   -2.487731|   -2.639437|    0.679536|
|         535|  7.4318e-01|   -6.238240|   -2.487738|   -2.639410|    0.679511|
|         536|  7.4240e-01|   -6.238218|   -2.487740|   -2.639379|    0.679530|
|         537|  7.4163e-01|   -6.238249|   -2.487747|   -2.639353|    0.679501|
|         538|  7.4087e-01|   -6.238230|   -2.487750|   -2.639322|    0.679520|
|         539|  7.4010e-01|   -6.238250|   -2.487756|   -2.639295|    0.679507|
|         540|  7.3934e-01|   -6.238233|   -2.487759|   -2.639266|    0.679522|
|         541|  7.3859e-01|   -6.238256|   -2.487766|   -2.639240|    0.679507|
|         542|  7.3785e-01|   -6.238240|   -2.487769|   -2.639212|    0.679520|
|         543|  7.3710e-01|   -6.238257|   -2.487775|   -2.639187|    0.679513|
|         544|  7.3635e-01|   -6.238244|   -2.487778|   -2.639161|    0.679523|
|         545|  7.3560e-01|   -6.238263|   -2.487785|   -2.639138|    0.679513|
|         546|  7.3486e-01|   -6.238247|   -2.487788|   -2.639113|    0.679528|
|         547|  7.3411e-01|   -6.238259|   -2.487795|   -2.639090|    0.679530|
|         548|  7.3338e-01|   -6.238247|   -2.487798|   -2.639066|    0.679538|
|         549|  7.3265e-01|   -6.238268|   -2.487806|   -2.639044|    0.679528|
|         550|  7.3190e-01|   -6.238257|   -2.487809|   -2.639022|    0.679535|
|         551|  7.3118e-01|   -6.238273|   -2.487817|   -2.639001|    0.679531|
|         552|  7.3044e-01|   -6.238260|   -2.487821|   -2.638980|    0.679538|
|         553|  7.2972e-01|   -6.238279|   -2.487829|   -2.638960|    0.679529|
|         554|  7.2900e-01|   -6.238261|   -2.487833|   -2.638941|    0.679542|
|         555|  7.2827e-01|   -6.238268|   -2.487841|   -2.638920|    0.679549|
|         556|  7.2755e-01|   -6.238257|   -2.487846|   -2.638902|    0.679554|
|         557|  7.2687e-01|   -6.238279|   -2.487855|   -2.638885|    0.679541|
|         558|  7.2615e-01|   -6.238269|   -2.487860|   -2.638871|    0.679545|
|         559|  7.2544e-01|   -6.238280|   -2.487869|   -2.638855|    0.679547|
|         560|  7.2473e-01|   -6.238269|   -2.487875|   -2.638841|    0.679553|
|         561|  7.2403e-01|   -6.238294|   -2.487884|   -2.638825|    0.679539|
|         562|  7.2333e-01|   -6.238284|   -2.487890|   -2.638811|    0.679546|
|         563|  7.2263e-01|   -6.238300|   -2.487900|   -2.638796|    0.679543|
|         564|  7.2193e-01|   -6.238290|   -2.487906|   -2.638784|    0.679546|
|         565|  7.2123e-01|   -6.238299|   -2.487917|   -2.638757|    0.679567|
|         566|  7.2054e-01|   -6.238261|   -2.487927|   -2.638753|    0.679619|
|         567|  7.1985e-01|   -6.238272|   -2.487938|   -2.638746|    0.679620|
|         568|  7.1916e-01|   -6.238274|   -2.487946|   -2.638747|    0.679595|
|         569|  7.1847e-01|   -6.238298|   -2.487957|   -2.638748|    0.679560|
|         570|  7.1779e-01|   -6.238233|   -2.487965|   -2.638765|    0.679625|
|         571|  7.1712e-01|   -6.238242|   -2.487974|   -2.638745|    0.679610|
|         572|  7.1643e-01|   -6.238290|   -2.487985|   -2.638717|    0.679564|
|         573|  7.1578e-01|   -6.238236|   -2.487993|   -2.638734|    0.679620|
|         574|  7.1508e-01|   -6.238294|   -2.488003|   -2.638709|    0.679552|
|         575|  7.1444e-01|   -6.238272|   -2.488013|   -2.638715|    0.679576|
|         576|  7.1379e-01|   -6.238290|   -2.488023|   -2.638694|    0.679550|
|         577|  7.1313e-01|   -6.238280|   -2.488032|   -2.638698|    0.679559|
|         578|  7.1246e-01|   -6.238289|   -2.488042|   -2.638688|    0.679548|
|         579|  7.1180e-01|   -6.238281|   -2.488051|   -2.638684|    0.679554|
|         580|  7.1114e-01|   -6.238236|   -2.488062|   -2.638692|    0.679623|
|         581|  7.1048e-01|   -6.238258|   -2.488071|   -2.638671|    0.679595|
|         582|  7.0983e-01|   -6.238255|   -2.488079|   -2.638670|    0.679588|
|         583|  7.0917e-01|   -6.238259|   -2.488088|   -2.638662|    0.679585|
|         584|  7.0852e-01|   -6.238253|   -2.488097|   -2.638662|    0.679603|
|         585|  7.0787e-01|   -6.238229|   -2.488108|   -2.638667|    0.679627|
|         586|  7.0722e-01|   -6.238257|   -2.488117|   -2.638652|    0.679603|
|         587|  7.0661e-01|   -6.238249|   -2.488124|   -2.638646|    0.679594|
|         588|  7.0596e-01|   -6.238266|   -2.488133|   -2.638641|    0.679583|
|         589|  7.0533e-01|   -6.238238|   -2.488140|   -2.638633|    0.679608|
|         590|  7.0468e-01|   -6.238202|   -2.488149|   -2.638637|    0.679667|
|         591|  7.0405e-01|   -6.238241|   -2.488157|   -2.638623|    0.679615|
|         592|  7.0341e-01|   -6.238242|   -2.488165|   -2.638624|    0.679605|
|         593|  7.0278e-01|   -6.238254|   -2.488173|   -2.638620|    0.679598|
|         594|  7.0217e-01|   -6.238238|   -2.488180|   -2.638616|    0.679619|
|         595|  7.0153e-01|   -6.238202|   -2.488189|   -2.638627|    0.679685|
|         596|  7.0090e-01|   -6.238248|   -2.488195|   -2.638601|    0.679638|
|         597|  7.0027e-01|   -6.238223|   -2.488202|   -2.638596|    0.679637|
|         598|  6.9965e-01|   -6.238216|   -2.488210|   -2.638589|    0.679644|
|         599|  6.9903e-01|   -6.238244|   -2.488215|   -2.638582|    0.679634|
|         600|  6.9842e-01|   -6.238219|   -2.488222|   -2.638585|    0.679675|
|         601|  6.9780e-01|   -6.238239|   -2.488227|   -2.638559|    0.679665|
|         602|  6.9719e-01|   -6.238236|   -2.488232|   -2.638553|    0.679662|
|         603|  6.9658e-01|   -6.238273|   -2.488238|   -2.638543|    0.679635|
|         604|  6.9597e-01|   -6.238259|   -2.488241|   -2.638533|    0.679654|
|         605|  6.9536e-01|   -6.238290|   -2.488246|   -2.638525|    0.679630|
|         606|  6.9476e-01|   -6.238293|   -2.488250|   -2.638510|    0.679631|
|         607|  6.9415e-01|   -6.238301|   -2.488253|   -2.638497|    0.679630|
|         608|  6.9355e-01|   -6.238302|   -2.488256|   -2.638484|    0.679635|
|         609|  6.9295e-01|   -6.238307|   -2.488259|   -2.638472|    0.679636|
|         610|  6.9236e-01|   -6.238308|   -2.488261|   -2.638456|    0.679641|
|         611|  6.9177e-01|   -6.238294|   -2.488263|   -2.638443|    0.679663|
|         612|  6.9117e-01|   -6.238295|   -2.488264|   -2.638428|    0.679672|
|         613|  6.9058e-01|   -6.238290|   -2.488265|   -2.638412|    0.679683|
|         614|  6.8999e-01|   -6.238289|   -2.488266|   -2.638397|    0.679693|
|         615|  6.8940e-01|   -6.238288|   -2.488267|   -2.638381|    0.679700|
|         616|  6.8881e-01|   -6.238291|   -2.488267|   -2.638365|    0.679702|
|         617|  6.8826e-01|   -6.238291|   -2.488267|   -2.638349|    0.679700|
|         618|  6.8767e-01|   -6.238295|   -2.488267|   -2.638337|    0.679702|
|         619|  6.8709e-01|   -6.238238|   -2.488267|   -2.638332|    0.679790|
|         620|  6.8654e-01|   -6.238278|   -2.488266|   -2.638292|    0.679744|
|         621|  6.8594e-01|   -6.238283|   -2.488264|   -2.638276|    0.679727|
|         622|  6.8537e-01|   -6.238296|   -2.488263|   -2.638257|    0.679721|
|         623|  6.8479e-01|   -6.238283|   -2.488260|   -2.638240|    0.679731|
|         624|  6.8422e-01|   -6.238294|   -2.488258|   -2.638222|    0.679722|
|         625|  6.8365e-01|   -6.238285|   -2.488254|   -2.638204|    0.679730|
|         626|  6.8309e-01|   -6.238285|   -2.488251|   -2.638184|    0.679735|
|         627|  6.8254e-01|   -6.238275|   -2.488247|   -2.638165|    0.679748|
|         628|  6.8199e-01|   -6.238277|   -2.488243|   -2.638144|    0.679750|
|         629|  6.8142e-01|   -6.238275|   -2.488239|   -2.638124|    0.679752|
|         630|  6.8087e-01|   -6.238276|   -2.488235|   -2.638103|    0.679755|
|         631|  6.8031e-01|   -6.238277|   -2.488230|   -2.638082|    0.679757|
|         632|  6.7975e-01|   -6.238281|   -2.488226|   -2.638060|    0.679758|
|         633|  6.7920e-01|   -6.238280|   -2.488221|   -2.638038|    0.679766|
|         634|  6.7864e-01|   -6.238280|   -2.488217|   -2.638017|    0.679773|
|         635|  6.7809e-01|   -6.238281|   -2.488212|   -2.637995|    0.679777|
|         636|  6.7754e-01|   -6.238282|   -2.488207|   -2.637974|    0.679781|
|         637|  6.7700e-01|   -6.238283|   -2.488202|   -2.637954|    0.679786|
|         638|  6.7645e-01|   -6.238282|   -2.488197|   -2.637934|    0.679794|
|         639|  6.7590e-01|   -6.238278|   -2.488193|   -2.637914|    0.679806|
|         640|  6.7536e-01|   -6.238264|   -2.488188|   -2.637895|    0.679820|
|         641|  6.7482e-01|   -6.238256|   -2.488184|   -2.637876|    0.679835|
|         642|  6.7428e-01|   -6.238251|   -2.488180|   -2.637858|    0.679847|
|         643|  6.7374e-01|   -6.238248|   -2.488177|   -2.637843|    0.679852|
|         644|  6.7322e-01|   -6.238249|   -2.488173|   -2.637831|    0.679850|
|         645|  6.7269e-01|   -6.238251|   -2.488170|   -2.637822|    0.679842|
|         646|  6.7215e-01|   -6.238253|   -2.488168|   -2.637814|    0.679837|
|         647|  6.7162e-01|   -6.238254|   -2.488166|   -2.637807|    0.679833|
|         648|  6.7110e-01|   -6.238254|   -2.488164|   -2.637802|    0.679830|
|         649|  6.7057e-01|   -6.238256|   -2.488163|   -2.637799|    0.679829|
|         650|  6.7005e-01|   -6.238257|   -2.488163|   -2.637797|    0.679829|
|         651|  6.6952e-01|   -6.238257|   -2.488163|   -2.637797|    0.679830|
|         652|  6.6902e-01|   -6.238256|   -2.488164|   -2.637799|    0.679832|
|         653|  6.6850e-01|   -6.238254|   -2.488165|   -2.637802|    0.679836|
|         654|  6.6798e-01|   -6.238252|   -2.488166|   -2.637807|    0.679841|
|         655|  6.6747e-01|   -6.238248|   -2.488168|   -2.637812|    0.679847|
|         656|  6.6695e-01|   -6.238243|   -2.488171|   -2.637819|    0.679855|
|         657|  6.6645e-01|   -6.238238|   -2.488174|   -2.637827|    0.679865|
|         658|  6.6592e-01|   -6.238230|   -2.488177|   -2.637835|    0.679879|
|         659|  6.6541e-01|   -6.238219|   -2.488181|   -2.637843|    0.679896|
|         660|  6.6490e-01|   -6.238206|   -2.488185|   -2.637850|    0.679915|
|         661|  6.6439e-01|   -6.238196|   -2.488190|   -2.637859|    0.679931|
|         662|  6.6388e-01|   -6.238189|   -2.488194|   -2.637870|    0.679940|
|         663|  6.6339e-01|   -6.238184|   -2.488199|   -2.637881|    0.679949|
|         664|  6.6287e-01|   -6.238179|   -2.488204|   -2.637892|    0.679958|
|         665|  6.6237e-01|   -6.238174|   -2.488209|   -2.637904|    0.679967|
|         666|  6.6189e-01|   -6.238169|   -2.488214|   -2.637915|    0.679976|
|         667|  6.6163e-01|   -6.238166|   -2.488220|   -2.637926|    0.679986|
|         668|  6.6120e-01|   -6.238164|   -2.488225|   -2.637937|    0.679995|
|         669|  6.6070e-01|   -6.238163|   -2.488230|   -2.637949|    0.680004|
|         670|  6.6021e-01|   -6.238162|   -2.488236|   -2.637959|    0.680013|
|         671|  6.5971e-01|   -6.238160|   -2.488241|   -2.637970|    0.680024|
|         672|  6.5922e-01|   -6.238159|   -2.488247|   -2.637978|    0.680035|
|         673|  6.5873e-01|   -6.238156|   -2.488253|   -2.637986|    0.680050|
|         674|  6.5831e-01|   -6.238150|   -2.488258|   -2.637991|    0.680071|
|         675|  6.5788e-01|   -6.238143|   -2.488264|   -2.637997|    0.680085|
|         676|  6.5745e-01|   -6.238142|   -2.488272|   -2.638000|    0.680088|
|         677|  6.5701e-01|   -6.238143|   -2.488277|   -2.638004|    0.680087|
|         678|  6.5659e-01|   -6.238150|   -2.488283|   -2.638006|    0.680081|
|         679|  6.5615e-01|   -6.238161|   -2.488288|   -2.638008|    0.680070|
|         680|  6.5574e-01|   -6.238175|   -2.488293|   -2.638009|    0.680054|
|         681|  6.5531e-01|   -6.238188|   -2.488298|   -2.638011|    0.680038|
|         682|  6.5487e-01|   -6.238201|   -2.488303|   -2.638012|    0.680022|
|         683|  6.5447e-01|   -6.238210|   -2.488307|   -2.638015|    0.680011|
|         684|  6.5406e-01|   -6.238224|   -2.488311|   -2.638024|    0.679990|
|         685|  6.5363e-01|   -6.238226|   -2.488317|   -2.638040|    0.680004|
|         686|  6.5320e-01|   -6.238245|   -2.488320|   -2.638032|    0.679980|
|         687|  6.5280e-01|   -6.238250|   -2.488323|   -2.638046|    0.679976|
|         688|  6.5237e-01|   -6.238213|   -2.488327|   -2.638076|    0.680051|
|         689|  6.5197e-01|   -6.238274|   -2.488329|   -2.638069|    0.679960|
|         690|  6.5156e-01|   -6.238274|   -2.488329|   -2.638086|    0.679973|
|         691|  6.5114e-01|   -6.238278|   -2.488330|   -2.638093|    0.679971|
|         692|  6.5074e-01|   -6.238269|   -2.488330|   -2.638104|    0.679985|
|         693|  6.5033e-01|   -6.238268|   -2.488330|   -2.638110|    0.679998|
|         694|  6.4991e-01|   -6.238269|   -2.488327|   -2.638121|    0.680013|
|         695|  6.4953e-01|   -6.238235|   -2.488326|   -2.638125|    0.680072|
|         696|  6.4912e-01|   -6.238240|   -2.488324|   -2.638123|    0.680079|
|         697|  6.4873e-01|   -6.238225|   -2.488324|   -2.638118|    0.680110|
|         698|  6.4831e-01|   -6.238214|   -2.488326|   -2.638123|    0.680130|
|         699|  6.4790e-01|   -6.238193|   -2.488332|   -2.638115|    0.680171|
|         700|  6.4758e-01|   -6.238146|   -2.488343|   -2.638107|    0.680233|
|         701|  6.4723e-01|   -6.238144|   -2.488359|   -2.638109|    0.680238|
|         702|  6.4689e-01|   -6.238115|   -2.488372|   -2.638121|    0.680295|
|         703|  6.4655e-01|   -6.238145|   -2.488396|   -2.638133|    0.680278|
|         704|  6.4622e-01|   -6.238105|   -2.488413|   -2.638152|    0.680333|
|         705|  6.4589e-01|   -6.238084|   -2.488438|   -2.638178|    0.680394|
|         706|  6.4555e-01|   -6.238108|   -2.488461|   -2.638213|    0.680375|
|         707|  6.4521e-01|   -6.238135|   -2.488490|   -2.638242|    0.680370|
|         708|  6.4488e-01|   -6.238086|   -2.488516|   -2.638265|    0.680461|
|         709|  6.4455e-01|   -6.237983|   -2.488542|   -2.638260|    0.680649|
|         710|  6.4421e-01|   -6.238038|   -2.488568|   -2.638250|    0.680615|
|         711|  6.4387e-01|   -6.238107|   -2.488592|   -2.638306|    0.680554|
|         712|  6.4354e-01|   -6.238111|   -2.488623|   -2.638348|    0.680580|
|         713|  6.4321e-01|   -6.238174|   -2.488660|   -2.638399|    0.680545|
|         714|  6.4287e-01|   -6.238128|   -2.488690|   -2.638431|    0.680649|
|         715|  6.4261e-01|   -6.238147|   -2.488716|   -2.638486|    0.680684|
|         716|  6.4232e-01|   -6.238154|   -2.488737|   -2.638526|    0.680703|
|         717|  6.4207e-01|   -6.238115|   -2.488757|   -2.638558|    0.680804|
|         718|  6.4181e-01|   -6.238119|   -2.488781|   -2.638572|    0.680833|
|         719|  6.4153e-01|   -6.237971|   -2.488807|   -2.638571|    0.681062|
|         720|  6.4125e-01|   -6.237852|   -2.488846|   -2.638528|    0.681264|
|         721|  6.4099e-01|   -6.237926|   -2.488872|   -2.638586|    0.681182|
|         722|  6.4071e-01|   -6.237836|   -2.488906|   -2.638497|    0.681414|
|         723|  6.4045e-01|   -6.237813|   -2.488922|   -2.638519|    0.681457|
|         724|  6.4020e-01|   -6.237299|   -2.488940|   -2.638235|    0.682293|
|         725|  6.3991e-01|   -6.237276|   -2.488955|   -2.638022|    0.682404|
|         726|  6.3972e-01|   -6.236852|   -2.488958|   -2.637342|    0.683126|
|         727|  6.3951e-01|   -6.237314|   -2.488902|   -2.636888|    0.682501|
|         728|  6.3931e-01|   -6.237483|   -2.488814|   -2.636681|    0.682366|
|         729|  6.3910e-01|   -6.237545|   -2.488764|   -2.636774|    0.682181|
|         730|  6.3891e-01|   -6.236518|   -2.488737|   -2.637229|    0.683890|
|         731|  6.3870e-01|   -6.234780|   -2.488784|   -2.637371|    0.686436|
|         732|  6.3851e-01|   -6.234665|   -2.488945|   -2.637337|    0.686827|
|         733|  6.3830e-01|   -6.236100|   -2.489209|   -2.637021|    0.684818|
|         734|  6.3816e-01|   -6.236242|   -2.489142|   -2.636458|    0.684723|
|         735|  6.3801e-01|   -6.236545|   -2.489093|   -2.636323|    0.684304|
|         736|  6.3776e-01|   -6.235069|   -2.489033|   -2.636483|    0.686517|
|         737|  6.3747e-01|   -6.236574|   -2.489006|   -2.636232|    0.684342|
|         738|  6.3711e-01|   -6.237256|   -2.488944|   -2.636107|    0.683391|
|         739|  6.3676e-01|   -6.237597|   -2.488904|   -2.636076|    0.682924|
|         740|  6.3634e-01|   -6.237740|   -2.488877|   -2.636061|    0.682713|
|         741|  6.3593e-01|   -6.237825|   -2.488857|   -2.636049|    0.682584|
|         742|  6.3553e-01|   -6.237878|   -2.488841|   -2.636037|    0.682513|
|         743|  6.3512e-01|   -6.237914|   -2.488823|   -2.636025|    0.682458|
|         744|  6.3471e-01|   -6.237936|   -2.488805|   -2.636011|    0.682421|
|         745|  6.3430e-01|   -6.237964|   -2.488790|   -2.635995|    0.682386|
|         746|  6.3389e-01|   -6.237990|   -2.488773|   -2.635977|    0.682345|
|         747|  6.3350e-01|   -6.238009|   -2.488758|   -2.635949|    0.682328|
|         748|  6.3309e-01|   -6.237944|   -2.488742|   -2.635906|    0.682404|
|         749|  6.3268e-01|   -6.238015|   -2.488729|   -2.635895|    0.682323|
|         750|  6.3228e-01|   -6.238023|   -2.488714|   -2.635869|    0.682306|
+-----------------------------------------------------------------------+
|        File Writing Summary       |              Filename             |
+-----------------------------------------------------------------------+
|SU2 binary restart                 |restart_flow.dat                   |
|Paraview                           |flow.vtu                           |
|CSV file                           |surface_flow.csv                   |
+-----------------------------------------------------------------------+
+-----------------------------------------------------------------------------+
|  Inner_Iter|   Time(sec)|    rms[Rho]|   rms[RhoU]|   rms[RhoV]|   rms[RhoE]|
+-----------------------------------------------------------------------------+
|         751|  6.3215e-01|   -6.238019|   -2.488701|   -2.635843|    0.682315|
|         752|  6.3175e-01|   -6.238015|   -2.488686|   -2.635815|    0.682313|
|         753|  6.3136e-01|   -6.238016|   -2.488674|   -2.635791|    0.682317|
|         754|  6.3096e-01|   -6.238019|   -2.488659|   -2.635765|    0.682308|
|         755|  6.3058e-01|   -6.238027|   -2.488648|   -2.635746|    0.682301|
|         756|  6.3018e-01|   -6.238043|   -2.488636|   -2.635729|    0.682272|
|         757|  6.2978e-01|   -6.238055|   -2.488627|   -2.635717|    0.682260|
|         758|  6.2940e-01|   -6.238069|   -2.488617|   -2.635698|    0.682237|
|         759|  6.2902e-01|   -6.238073|   -2.488610|   -2.635684|    0.682234|
|         760|  6.2863e-01|   -6.238074|   -2.488602|   -2.635663|    0.682223|
|         761|  6.2824e-01|   -6.238086|   -2.488599|   -2.635649|    0.682223|
|         762|  6.2785e-01|   -6.238100|   -2.488589|   -2.635630|    0.682214|
|         763|  6.2745e-01|   -6.238104|   -2.488583|   -2.635615|    0.682218|
|         764|  6.2706e-01|   -6.238114|   -2.488580|   -2.635598|    0.682215|
|         765|  6.2667e-01|   -6.238121|   -2.488576|   -2.635584|    0.682211|
|         766|  6.2628e-01|   -6.238125|   -2.488572|   -2.635570|    0.682208|
|         767|  6.2589e-01|   -6.238134|   -2.488569|   -2.635560|    0.682198|
|         768|  6.2552e-01|   -6.238136|   -2.488566|   -2.635544|    0.682199|
|         769|  6.2512e-01|   -6.238142|   -2.488563|   -2.635532|    0.682193|
|         770|  6.2474e-01|   -6.238148|   -2.488560|   -2.635518|    0.682188|
|         771|  6.2436e-01|   -6.238154|   -2.488558|   -2.635506|    0.682183|
|         772|  6.2397e-01|   -6.238161|   -2.488556|   -2.635493|    0.682176|
|         773|  6.2360e-01|   -6.238182|   -2.488553|   -2.635477|    0.682152|
|         774|  6.2325e-01|   -6.238188|   -2.488551|   -2.635461|    0.682148|
|         775|  6.2287e-01|   -6.238189|   -2.488548|   -2.635447|    0.682151|
|         776|  6.2249e-01|   -6.238193|   -2.488546|   -2.635433|    0.682149|
|         777|  6.2211e-01|   -6.238160|   -2.488543|   -2.635411|    0.682199|
|         778|  6.2173e-01|   -6.238179|   -2.488542|   -2.635398|    0.682176|
|         779|  6.2133e-01|   -6.238199|   -2.488541|   -2.635391|    0.682150|
|         780|  6.2098e-01|   -6.238200|   -2.488540|   -2.635376|    0.682153|
|         781|  6.2060e-01|   -6.238201|   -2.488538|   -2.635360|    0.682158|
|         782|  6.2021e-01|   -6.238201|   -2.488537|   -2.635343|    0.682164|
|         783|  6.1986e-01|   -6.238203|   -2.488536|   -2.635326|    0.682169|
|         784|  6.1949e-01|   -6.238204|   -2.488536|   -2.635310|    0.682175|
|         785|  6.1913e-01|   -6.238204|   -2.488536|   -2.635296|    0.682183|
|         786|  6.1876e-01|   -6.238214|   -2.488537|   -2.635282|    0.682181|
|         787|  6.1840e-01|   -6.238217|   -2.488537|   -2.635268|    0.682187|
|         788|  6.1804e-01|   -6.238220|   -2.488538|   -2.635256|    0.682190|
|         789|  6.1766e-01|   -6.238222|   -2.488539|   -2.635245|    0.682193|
|         790|  6.1731e-01|   -6.238226|   -2.488541|   -2.635234|    0.682193|
|         791|  6.1695e-01|   -6.238230|   -2.488542|   -2.635225|    0.682191|
|         792|  6.1658e-01|   -6.238234|   -2.488545|   -2.635217|    0.682190|
|         793|  6.1622e-01|   -6.238237|   -2.488548|   -2.635211|    0.682188|
|         794|  6.1584e-01|   -6.238240|   -2.488552|   -2.635206|    0.682186|
|         795|  6.1549e-01|   -6.238243|   -2.488556|   -2.635202|    0.682184|
|         796|  6.1514e-01|   -6.238242|   -2.488561|   -2.635199|    0.682186|
|         797|  6.1476e-01|   -6.238240|   -2.488566|   -2.635197|    0.682187|
|         798|  6.1442e-01|   -6.238238|   -2.488572|   -2.635195|    0.682188|
|         799|  6.1408e-01|   -6.238235|   -2.488578|   -2.635194|    0.682188|
|         800|  6.1372e-01|   -6.238231|   -2.488585|   -2.635193|    0.682189|
|         801|  6.1337e-01|   -6.238228|   -2.488592|   -2.635193|    0.682190|
|         802|  6.1301e-01|   -6.238229|   -2.488599|   -2.635194|    0.682193|
|         803|  6.1266e-01|   -6.238228|   -2.488607|   -2.635195|    0.682197|
|         804|  6.1230e-01|   -6.238228|   -2.488615|   -2.635196|    0.682201|
|         805|  6.1197e-01|   -6.238231|   -2.488623|   -2.635196|    0.682203|
|         806|  6.1162e-01|   -6.238232|   -2.488631|   -2.635193|    0.682207|
|         807|  6.1127e-01|   -6.238228|   -2.488640|   -2.635192|    0.682216|
|         808|  6.1094e-01|   -6.238219|   -2.488649|   -2.635190|    0.682230|
|         809|  6.1059e-01|   -6.238210|   -2.488658|   -2.635191|    0.682241|
|         810|  6.1024e-01|   -6.238201|   -2.488667|   -2.635193|    0.682246|
|         811|  6.0989e-01|   -6.238192|   -2.488676|   -2.635196|    0.682254|
|         812|  6.0954e-01|   -6.238190|   -2.488685|   -2.635198|    0.682257|
|         813|  6.0920e-01|   -6.238199|   -2.488693|   -2.635198|    0.682257|
|         814|  6.0887e-01|   -6.238209|   -2.488700|   -2.635197|    0.682258|
|         815|  6.0855e-01|   -6.238215|   -2.488708|   -2.635197|    0.682264|
|         816|  6.0821e-01|   -6.238217|   -2.488715|   -2.635197|    0.682271|
|         817|  6.0787e-01|   -6.238216|   -2.488723|   -2.635197|    0.682280|
|         818|  6.0755e-01|   -6.238213|   -2.488731|   -2.635197|    0.682290|
|         819|  6.0721e-01|   -6.238209|   -2.488739|   -2.635197|    0.682299|
|         820|  6.0687e-01|   -6.238197|   -2.488748|   -2.635195|    0.682316|
[...]
|        2772|  4.4760e-01|   -6.393832|   -2.398639|   -2.633948|    0.543661|
|        2773|  4.4758e-01|   -6.393846|   -2.398652|   -2.633977|    0.543647|
|        2774|  4.4755e-01|   -6.393855|   -2.398668|   -2.633988|    0.543641|
|        2775|  4.4752e-01|   -6.393862|   -2.398682|   -2.634018|    0.543638|
|        2776|  4.4749e-01|   -6.393882|   -2.398700|   -2.634029|    0.543636|
|        2777|  4.4747e-01|   -6.393901|   -2.398716|   -2.634065|    0.543634|
|        2778|  4.4743e-01|   -6.393943|   -2.398737|   -2.634077|    0.543604|
|        2779|  4.4741e-01|   -6.393977|   -2.398757|   -2.634116|    0.543580|
|        2780|  4.4738e-01|   -6.394022|   -2.398782|   -2.634129|    0.543537|
|        2781|  4.4735e-01|   -6.394053|   -2.398805|   -2.634172|    0.543515|
|        2782|  4.4733e-01|   -6.394056|   -2.398833|   -2.634182|    0.543506|
|        2783|  4.4730e-01|   -6.394103|   -2.398858|   -2.634235|    0.543468|
|        2784|  4.4727e-01|   -6.394081|   -2.398886|   -2.634269|    0.543493|
|        2785|  4.4724e-01|   -6.394130|   -2.398913|   -2.634333|    0.543466|
|        2786|  4.4721e-01|   -6.394082|   -2.398946|   -2.634369|    0.543545|
|        2787|  4.4718e-01|   -6.394178|   -2.398977|   -2.634443|    0.543442|
|        2788|  4.4716e-01|   -6.394194|   -2.399012|   -2.634483|    0.543440|
|        2789|  4.4714e-01|   -6.394189|   -2.399047|   -2.634542|    0.543476|
|        2790|  4.4713e-01|   -6.394185|   -2.399085|   -2.634566|    0.543500|
|        2791|  4.4712e-01|   -6.394155|   -2.399124|   -2.634593|    0.543566|
|        2792|  4.4710e-01|   -6.394217|   -2.399165|   -2.634592|    0.543502|
|        2793|  4.4708e-01|   -6.394247|   -2.399203|   -2.634595|    0.543478|
|        2794|  4.4708e-01|   -6.394341|   -2.399243|   -2.634572|    0.543377|
|        2795|  4.4706e-01|   -6.394390|   -2.399280|   -2.634559|    0.543322|
|        2796|  4.4705e-01|   -6.394468|   -2.399320|   -2.634525|    0.543238|
|        2797|  4.4703e-01|   -6.394504|   -2.399359|   -2.634487|    0.543205|
|        2798|  4.4702e-01|   -6.394546|   -2.399401|   -2.634427|    0.543180|
|        2799|  4.4701e-01|   -6.394662|   -2.399442|   -2.634366|    0.543044|
|        2800|  4.4699e-01|   -6.394750|   -2.399486|   -2.634302|    0.542935|
|        2801|  4.4698e-01|   -6.394792|   -2.399532|   -2.634258|    0.542875|
|        2802|  4.4697e-01|   -6.394866|   -2.399578|   -2.634236|    0.542803|
|        2803|  4.4695e-01|   -6.394908|   -2.399631|   -2.634259|    0.542761|
|        2804|  4.4695e-01|   -6.394987|   -2.399686|   -2.634286|    0.542727|
|        2805|  4.4695e-01|   -6.395039|   -2.399746|   -2.634305|    0.542724|
|        2806|  4.4695e-01|   -6.395234|   -2.399808|   -2.634326|    0.542541|
|        2807|  4.4695e-01|   -6.395323|   -2.399876|   -2.634357|    0.542458|
|        2808|  4.4696e-01|   -6.395430|   -2.399949|   -2.634384|    0.542357|
|        2809|  4.4696e-01|   -6.395501|   -2.400028|   -2.634417|    0.542297|
|        2810|  4.4695e-01|   -6.395573|   -2.400111|   -2.634453|    0.542262|
|        2811|  4.4696e-01|   -6.395548|   -2.400201|   -2.634495|    0.542350|
|        2812|  4.4697e-01|   -6.395653|   -2.400293|   -2.634548|    0.542265|
|        2813|  4.4697e-01|   -6.395492|   -2.400391|   -2.634619|    0.542511|
|        2814|  4.4697e-01|   -6.395710|   -2.400495|   -2.634722|    0.542390|
|        2815|  4.4697e-01|   -6.395822|   -2.400605|   -2.634862|    0.542334|
|        2816|  4.4698e-01|   -6.395967|   -2.400719|   -2.635031|    0.542180|
|        2817|  4.4700e-01|   -6.395680|   -2.400844|   -2.635237|    0.542574|
|        2818|  4.4702e-01|   -6.396099|   -2.400977|   -2.635562|    0.542058|
|        2819|  4.4703e-01|   -6.395816|   -2.401115|   -2.635904|    0.542466|
|        2820|  4.4705e-01|   -6.395668|   -2.401254|   -2.636179|    0.542737|
|        2821|  4.4707e-01|   -6.396236|   -2.401402|   -2.636475|    0.542213|
|        2822|  4.4709e-01|   -6.396535|   -2.401558|   -2.636749|    0.541876|
|        2823|  4.4710e-01|   -6.396709|   -2.401729|   -2.637008|    0.541823|
|        2824|  4.4713e-01|   -6.396534|   -2.401908|   -2.637280|    0.542197|
|        2825|  4.4716e-01|   -6.396287|   -2.402099|   -2.637542|    0.542624|
|        2826|  4.4720e-01|   -6.396827|   -2.402293|   -2.637737|    0.542071|
|        2827|  4.4723e-01|   -6.396745|   -2.402481|   -2.637890|    0.542264|
|        2828|  4.4725e-01|   -6.396968|   -2.402664|   -2.638079|    0.542132|
|        2829|  4.4729e-01|   -6.396478|   -2.402837|   -2.638223|    0.542959|
|        2830|  4.4732e-01|   -6.396318|   -2.403027|   -2.638280|    0.543392|
|        2831|  4.4738e-01|   -6.395558|   -2.403239|   -2.638259|    0.544388|
|        2832|  4.4742e-01|   -6.396098|   -2.403521|   -2.638717|    0.543753|
|        2833|  4.4747e-01|   -6.394431|   -2.403783|   -2.639352|    0.546062|
|        2834|  4.4751e-01|   -6.391465|   -2.404109|   -2.639815|    0.550162|
|        2835|  4.4756e-01|   -6.395316|   -2.404486|   -2.640150|    0.545216|
|        2836|  4.4762e-01|   -6.393538|   -2.404821|   -2.640224|    0.547780|
|        2837|  4.4767e-01|   -6.394291|   -2.405192|   -2.640507|    0.546843|
|        2838|  4.4774e-01|   -6.389549|   -2.405509|   -2.641452|    0.553405|
|        2839|  4.4779e-01|   -6.390607|   -2.406025|   -2.641962|    0.552132|
|        2840|  4.4786e-01|   -6.393647|   -2.406551|   -2.642639|    0.548104|
|        2841|  4.4793e-01|   -6.388073|   -2.407005|   -2.643156|    0.555605|
|        2842|  4.4801e-01|   -6.390212|   -2.407509|   -2.643816|    0.552623|
|        2843|  4.4808e-01|   -6.385522|   -2.408023|   -2.644562|    0.558862|
|        2844|  4.4816e-01|   -6.391320|   -2.408744|   -2.645334|    0.550893|
|        2845|  4.4823e-01|   -6.387553|   -2.409510|   -2.646372|    0.555757|
|        2846|  4.4827e-01|   -6.390747|   -2.410202|   -2.647622|    0.551402|
|        2847|  4.4829e-01|   -6.394793|   -2.410626|   -2.647827|    0.546172|
|        2848|  4.4828e-01|   -6.396308|   -2.410794|   -2.647827|    0.544145|
|        2849|  4.4827e-01|   -6.396954|   -2.410848|   -2.647776|    0.543142|
|        2850|  4.4825e-01|   -6.396967|   -2.410858|   -2.647651|    0.543130|
|        2851|  4.4820e-01|   -6.396823|   -2.410853|   -2.647528|    0.543307|
|        2852|  4.4816e-01|   -6.396697|   -2.410847|   -2.647436|    0.543478|
|        2853|  4.4812e-01|   -6.396519|   -2.410833|   -2.647314|    0.543735|
|        2854|  4.4809e-01|   -6.396309|   -2.410816|   -2.647175|    0.544035|
|        2855|  4.4806e-01|   -6.396072|   -2.410793|   -2.647017|    0.544374|
|        2856|  4.4804e-01|   -6.395805|   -2.410766|   -2.646839|    0.544752|
|        2857|  4.4801e-01|   -6.395518|   -2.410732|   -2.646641|    0.545156|
|        2858|  4.4798e-01|   -6.395209|   -2.410692|   -2.646421|    0.545593|
|        2859|  4.4796e-01|   -6.394869|   -2.410644|   -2.646186|    0.546063|
|        2860|  4.4795e-01|   -6.394591|   -2.410588|   -2.645923|    0.546469|
|        2861|  4.4798e-01|   -6.394277|   -2.410525|   -2.645640|    0.546918|
|        2862|  4.4795e-01|   -6.393951|   -2.410454|   -2.645340|    0.547374|
|        2863|  4.4792e-01|   -6.393636|   -2.410377|   -2.645022|    0.547820|
|        2864|  4.4790e-01|   -6.393357|   -2.410292|   -2.644686|    0.548234|
|        2865|  4.4787e-01|   -6.393105|   -2.410201|   -2.644336|    0.548604|
|        2866|  4.4784e-01|   -6.392884|   -2.410105|   -2.643979|    0.548924|
|        2867|  4.4782e-01|   -6.392703|   -2.410005|   -2.643619|    0.549184|
|        2868|  4.4779e-01|   -6.392585|   -2.409902|   -2.643261|    0.549353|
|        2869|  4.4776e-01|   -6.392533|   -2.409798|   -2.642912|    0.549427|
|        2870|  4.4774e-01|   -6.392553|   -2.409695|   -2.642579|    0.549395|
|        2871|  4.4771e-01|   -6.392649|   -2.409595|   -2.642269|    0.549251|
|        2872|  4.4768e-01|   -6.392829|   -2.409501|   -2.641993|    0.548986|
|        2873|  4.4766e-01|   -6.393087|   -2.409415|   -2.641761|    0.548605|
|        2874|  4.4763e-01|   -6.393412|   -2.409341|   -2.641582|    0.548122|
|        2875|  4.4760e-01|   -6.393791|   -2.409280|   -2.641467|    0.547551|
|        2876|  4.4757e-01|   -6.394192|   -2.409236|   -2.641425|    0.546930|
|        2877|  4.4753e-01|   -6.394605|   -2.409212|   -2.641462|    0.546286|
|        2878|  4.4749e-01|   -6.394947|   -2.409208|   -2.641582|    0.545712|
|        2879|  4.4745e-01|   -6.395180|   -2.409223|   -2.641789|    0.545282|
|        2880|  4.4741e-01|   -6.395245|   -2.409258|   -2.642078|    0.545086|
|        2881|  4.4737e-01|   -6.395073|   -2.409311|   -2.642437|    0.545207|
|        2882|  4.4733e-01|   -6.394646|   -2.409376|   -2.642851|    0.545684|
|        2883|  4.4731e-01|   -6.393972|   -2.409451|   -2.643296|    0.546501|
|        2884|  4.4728e-01|   -6.393117|   -2.409532|   -2.643752|    0.547578|
|        2885|  4.4726e-01|   -6.392169|   -2.409615|   -2.644197|    0.548790|
|        2886|  4.4723e-01|   -6.391232|   -2.409699|   -2.644621|    0.549995|
|        2887|  4.4721e-01|   -6.390414|   -2.409782|   -2.645010|    0.551050|
|        2888|  4.4718e-01|   -6.389779|   -2.409864|   -2.645360|    0.551865|
|        2889|  4.4715e-01|   -6.389359|   -2.409944|   -2.645671|    0.552399|
|        2890|  4.4713e-01|   -6.389162|   -2.410022|   -2.645946|    0.552643|
|        2891|  4.4710e-01|   -6.389131|   -2.410098|   -2.646186|    0.552680|
|        2892|  4.4708e-01|   -6.388937|   -2.410174|   -2.646378|    0.552965|
|        2893|  4.4705e-01|   -6.389507|   -2.410244|   -2.646590|    0.552175|
|        2894|  4.4702e-01|   -6.389848|   -2.410308|   -2.646769|    0.551719|
|        2895|  4.4699e-01|   -6.390202|   -2.410368|   -2.646925|    0.551260|
|        2896|  4.4696e-01|   -6.390557|   -2.410425|   -2.647064|    0.550803|
|        2897|  4.4695e-01|   -6.390941|   -2.410477|   -2.647188|    0.550314|
|        2898|  4.4692e-01|   -6.391259|   -2.410528|   -2.647302|    0.549894|
|        2899|  4.4690e-01|   -6.391569|   -2.410574|   -2.647406|    0.549482|
|        2900|  4.4687e-01|   -6.391948|   -2.410614|   -2.647497|    0.549004|
|        2901|  4.4684e-01|   -6.392287|   -2.410653|   -2.647578|    0.548573|
|        2902|  4.4681e-01|   -6.392603|   -2.410688|   -2.647651|    0.548171|
|        2903|  4.4678e-01|   -6.392919|   -2.410721|   -2.647716|    0.547797|
|        2904|  4.4676e-01|   -6.393159|   -2.410751|   -2.647774|    0.547493|
|        2905|  4.4673e-01|   -6.393318|   -2.410781|   -2.647828|    0.547287|
|        2906|  4.4670e-01|   -6.393114|   -2.410812|   -2.647863|    0.547645|
|        2907|  4.4667e-01|   -6.393626|   -2.410835|   -2.647931|    0.546937|
|        2908|  4.4665e-01|   -6.393789|   -2.410857|   -2.647974|    0.546727|
|        2909|  4.4662e-01|   -6.393937|   -2.410881|   -2.647997|    0.546557|
|        2910|  4.4658e-01|   -6.394146|   -2.410904|   -2.648016|    0.546306|
|        2911|  4.4654e-01|   -6.394362|   -2.410926|   -2.648031|    0.546039|
|        2912|  4.4649e-01|   -6.394583|   -2.410947|   -2.648041|    0.545776|
|        2913|  4.4646e-01|   -6.394764|   -2.410967|   -2.648049|    0.545547|
|        2914|  4.4642e-01|   -6.394921|   -2.410985|   -2.648054|    0.545346|
|        2915|  4.4638e-01|   -6.395060|   -2.411002|   -2.648058|    0.545165|
|        2916|  4.4634e-01|   -6.395178|   -2.411018|   -2.648058|    0.545010|
|        2917|  4.4630e-01|   -6.395297|   -2.411034|   -2.648058|    0.544850|
|        2918|  4.4626e-01|   -6.395398|   -2.411049|   -2.648057|    0.544710|
|        2919|  4.4622e-01|   -6.395464|   -2.411064|   -2.648055|    0.544609|
|        2920|  4.4618e-01|   -6.395506|   -2.411077|   -2.648050|    0.544539|
|        2921|  4.4614e-01|   -6.395626|   -2.411091|   -2.648032|    0.544395|
|        2922|  4.4612e-01|   -6.395722|   -2.411106|   -2.648014|    0.544280|
|        2923|  4.4609e-01|   -6.395834|   -2.411121|   -2.647991|    0.544142|
|        2924|  4.4606e-01|   -6.395913|   -2.411136|   -2.647968|    0.544041|
|        2925|  4.4603e-01|   -6.395993|   -2.411151|   -2.647944|    0.543932|
|        2926|  4.4601e-01|   -6.396068|   -2.411167|   -2.647920|    0.543828|
|        2927|  4.4598e-01|   -6.396138|   -2.411182|   -2.647894|    0.543731|
|        2928|  4.4595e-01|   -6.396210|   -2.411197|   -2.647866|    0.543633|
|        2929|  4.4592e-01|   -6.396282|   -2.411213|   -2.647837|    0.543536|
|        2930|  4.4590e-01|   -6.396349|   -2.411229|   -2.647808|    0.543441|
|        2931|  4.4587e-01|   -6.396428|   -2.411243|   -2.647781|    0.543327|
|        2932|  4.4584e-01|   -6.396524|   -2.411257|   -2.647756|    0.543196|
|        2933|  4.4582e-01|   -6.396570|   -2.411271|   -2.647727|    0.543140|
|        2934|  4.4579e-01|   -6.396623|   -2.411285|   -2.647701|    0.543066|
|        2935|  4.4576e-01|   -6.396620|   -2.411299|   -2.647685|    0.543053|
|        2936|  4.4574e-01|   -6.396700|   -2.411323|   -2.647664|    0.542954|
|        2937|  4.4571e-01|   -6.396775|   -2.411346|   -2.647655|    0.542837|
|        2938|  4.4569e-01|   -6.396793|   -2.411367|   -2.647654|    0.542776|
|        2939|  4.4566e-01|   -6.396832|   -2.411391|   -2.647659|    0.542704|
|        2940|  4.4563e-01|   -6.396831|   -2.411416|   -2.647664|    0.542674|
|        2941|  4.4560e-01|   -6.396859|   -2.411443|   -2.647682|    0.542623|
|        2942|  4.4558e-01|   -6.396887|   -2.411472|   -2.647693|    0.542588|
|        2943|  4.4557e-01|   -6.396895|   -2.411502|   -2.647711|    0.542548|
|        2944|  4.4554e-01|   -6.396896|   -2.411534|   -2.647733|    0.542516|
|        2945|  4.4551e-01|   -6.396887|   -2.411568|   -2.647757|    0.542498|
|        2946|  4.4548e-01|   -6.396841|   -2.411607|   -2.647784|    0.542523|
|        2947|  4.4546e-01|   -6.396832|   -2.411647|   -2.647819|    0.542503|
|        2948|  4.4543e-01|   -6.396828|   -2.411691|   -2.647865|    0.542475|
|        2949|  4.4542e-01|   -6.396827|   -2.411739|   -2.647912|    0.542439|
|        2950|  4.4540e-01|   -6.396796|   -2.411789|   -2.647981|    0.542429|
|        2951|  4.4540e-01|   -6.396750|   -2.411843|   -2.648062|    0.542453|
|        2952|  4.4538e-01|   -6.396817|   -2.411901|   -2.648148|    0.542334|
|        2953|  4.4537e-01|   -6.396825|   -2.411963|   -2.648256|    0.542286|
|        2954|  4.4536e-01|   -6.396817|   -2.412030|   -2.648379|    0.542257|
|        2955|  4.4534e-01|   -6.396782|   -2.412102|   -2.648531|    0.542230|
|        2956|  4.4533e-01|   -6.395965|   -2.412178|   -2.648735|    0.543066|
|        2957|  4.4532e-01|   -6.396470|   -2.412265|   -2.648917|    0.542502|
|        2958|  4.4530e-01|   -6.396523|   -2.412353|   -2.649097|    0.542363|
|        2959|  4.4529e-01|   -6.396463|   -2.412445|   -2.649311|    0.542365|
|        2960|  4.4528e-01|   -6.396353|   -2.412543|   -2.649536|    0.542464|
|        2961|  4.4526e-01|   -6.396218|   -2.412647|   -2.649771|    0.542580|
|        2962|  4.4526e-01|   -6.396151|   -2.412754|   -2.649989|    0.542709|
|        2963|  4.4524e-01|   -6.396044|   -2.412864|   -2.650188|    0.542832|
|        2964|  4.4525e-01|   -6.395924|   -2.412981|   -2.650359|    0.543009|
|        2965|  4.4525e-01|   -6.395916|   -2.413103|   -2.650574|    0.543038|
|        2966|  4.4525e-01|   -6.395868|   -2.413231|   -2.650811|    0.543078|
|        2967|  4.4525e-01|   -6.395775|   -2.413367|   -2.651074|    0.543084|
|        2968|  4.4526e-01|   -6.395734|   -2.413508|   -2.651369|    0.543158|
|        2969|  4.4526e-01|   -6.395386|   -2.413653|   -2.651667|    0.543285|
|        2970|  4.4526e-01|   -6.395364|   -2.413804|   -2.651966|    0.543344|
|        2971|  4.4526e-01|   -6.395189|   -2.413962|   -2.652295|    0.543544|
|        2972|  4.4526e-01|   -6.395049|   -2.414122|   -2.652640|    0.543738|
|        2973|  4.4526e-01|   -6.394626|   -2.414274|   -2.652912|    0.544356|
|        2974|  4.4527e-01|   -6.394232|   -2.414424|   -2.653079|    0.544976|
|        2975|  4.4527e-01|   -6.394929|   -2.414568|   -2.653482|    0.543874|
|        2976|  4.4528e-01|   -6.393540|   -2.414711|   -2.653997|    0.545689|
|        2977|  4.4530e-01|   -6.391322|   -2.414917|   -2.654271|    0.548674|
|        2978|  4.4531e-01|   -6.392561|   -2.415180|   -2.654478|    0.546697|
|        2979|  4.4533e-01|   -6.392140|   -2.415470|   -2.654639|    0.547198|
|        2980|  4.4535e-01|   -6.386626|   -2.415670|   -2.654155|    0.554974|
|        2981|  4.4536e-01|   -6.389088|   -2.415741|   -2.653758|    0.551607|
|        2982|  4.4538e-01|   -6.385025|   -2.415479|   -2.655201|    0.556125|
|        2983|  4.4540e-01|   -6.385294|   -2.415710|   -2.656351|    0.555566|
|        2984|  4.4542e-01|   -6.389234|   -2.416173|   -2.657326|    0.550262|
|        2985|  4.4545e-01|   -6.390752|   -2.416585|   -2.657882|    0.548294|
|        2986|  4.4548e-01|   -6.391991|   -2.416960|   -2.658280|    0.546616|
|        2987|  4.4552e-01|   -6.392262|   -2.417277|   -2.658692|    0.546231|
|        2988|  4.4554e-01|   -6.392354|   -2.417608|   -2.659274|    0.545978|
|        2989|  4.4558e-01|   -6.392514|   -2.417971|   -2.660005|    0.545538|
|        2990|  4.4562e-01|   -6.391950|   -2.418373|   -2.660988|    0.546070|
|        2991|  4.4566e-01|   -6.390881|   -2.418814|   -2.662042|    0.547205|
|        2992|  4.4571e-01|   -6.389465|   -2.419297|   -2.663027|    0.549056|
|        2993|  4.4575e-01|   -6.389167|   -2.419803|   -2.663899|    0.549117|
|        2994|  4.4579e-01|   -6.388576|   -2.420200|   -2.664732|    0.549736|
|        2995|  4.4583e-01|   -6.387969|   -2.420670|   -2.665849|    0.550143|
|        2996|  4.4589e-01|   -6.378698|   -2.421246|   -2.666794|    0.562353|
|        2997|  4.4595e-01|   -6.386315|   -2.421809|   -2.667973|    0.551920|
|        2998|  4.4601e-01|   -6.385171|   -2.422406|   -2.669441|    0.552827|
|        2999|  4.4606e-01|   -6.382945|   -2.423042|   -2.671034|    0.555585|

----------------------------- Solver Exit -------------------------------

Maximum number of iterations reached (ITER = 3000) before convergence.
+-----------------------------------------------------------------------+
|      Convergence Field     |     Value    |   Criterion  |  Converged |
+-----------------------------------------------------------------------+
|                    rms[Rho]|      -6.38295|          < -8|          No|
+-----------------------------------------------------------------------+
-------------------------------------------------------------------------
+-----------------------------------------------------------------------+
|        File Writing Summary       |              Filename             |
+-----------------------------------------------------------------------+
|SU2 binary restart                 |restart_flow.dat                   |
|Paraview                           |flow.vtu                           |
|CSV file                           |surface_flow.csv                   |
+-----------------------------------------------------------------------+

--------------------------- Finalizing Solver ---------------------------
Deleted CNumerics container.
Deleted CIntegration container.
Deleted CSolver container.
Deleted CIteration container.
Deleted CInterface container.
Deleted CGeometry container.
Deleted CFreeFormDefBox class.
Deleted CSurfaceMovement class.
Deleted CVolumetricMovement class.
Deleted CConfig container.
Deleted nInst container.
Deleted COutput class.
-------------------------------------------------------------------------

------------------------- Exit Success (SU2_CFD) ------------------------


Total elapsed: 0:22:20
