
-------------------------------------------------------------------------
|    ___ _   _ ___                                                      |
|   / __| | | |_  )   Release 8.3.0 "Harrier"                           |
|   \__ \ |_| |/ /                                                      |
|   |___/\___//___|   Suite (Computational Fluid Dynamics Code)         |
|                                                                       |
-------------------------------------------------------------------------
| SU2 Project Website: https://su2code.github.io                        |
|                                                                       |
| The SU2 Project is maintained by the SU2 Foundation                   |
| (http://su2foundation.org)                                            |
-------------------------------------------------------------------------
| Copyright 2012-2025, SU2 Contributors                                 |
|                                                                       |
| SU2 is free software; you can redistribute it and/or                  |
| modify it under the terms of the GNU Lesser General Public            |
| License as published by the Free Software Foundation; either          |
| version 2.1 of the License, or (at your option) any later version.    |
|                                                                       |
| SU2 is distributed in the hope that it will be useful,                |
| but WITHOUT ANY WARRANTY; without even the implied warranty of        |
| MERCHANTABILITY or FITNESS FOR A PARTICULAR PURPOSE. See the GNU      |
| Lesser General Public License for more details.                       |
|                                                                       |
| You should have received a copy of the GNU Lesser General Public      |
| License along with SU2. If not, see <http://www.gnu.org/licenses/>.   |
-------------------------------------------------------------------------

Parsing config file for zone 0

----------------- Physical Case Definition ( Zone 0 ) -------------------
Compressible Laminar Navier-Stokes' equations.
Mach number: 0.3.
Angle of attack (AoA): 0 deg, and angle of sideslip (AoS): 0 deg.
Reynolds number: 89810. Reference length 0.166667.
No restart solution, use the values at infinity (freestream).
Dimensional simulation.
The reference area is 0.0833333 ft^2.
The semi-span will be computed using the max y(3D) value.
The reference length is 0.166667 ft.
Input mesh file name: swirler_n6_c2_AoA10_NACA8412.su2

--------------- Space Numerical Integration ( Zone 0 ) ------------------
Roe (with entropy fix = 0.1) solver for the flow inviscid terms.
Standard Roe without low-dissipation function.
Second order integration in space, with slope limiter.
Venkatakrishnan slope-limiting method, with constant: 0.02.
The reference element size is: 3.28084. 
Average of gradients with correction (viscous flow terms).
Gradient for upwind reconstruction: inverse-distance weighted Least-Squares.
Gradient for viscous and source terms: inverse-distance weighted Least-Squares.

--------------- Time Numerical Integration  ( Zone 0 ) ------------------
Local time stepping (steady state simulation).
Euler implicit method for the flow equations.
FGMRES is used for solving the linear system.
Using a ILU(0) preconditioning.
Convergence criteria of the linear solver: 1e-06.
Max number of linear iterations: 120.
CFL adaptation. Factor down: 0.5, factor up: 1.3,
                lower limit: 0.01, upper limit: 30,
                acceptable linear residual: 0.001'
                starting iteration: 0.
Courant-Friedrichs-Lewy number:      0.5

------------------ Convergence Criteria  ( Zone 0 ) ---------------------
Maximum number of solver subiterations: 2500.
Begin convergence monitoring at iteration 20.
Residual minimum value: 1e-8.
Cauchy series min. value: 1e-06.
Number of Cauchy elements: 100.
Begin windowed time average at iteration 0.

-------------------- Output Information ( Zone 0 ) ----------------------
File writing frequency: 
+------------------------------------+
|                     File| Frequency|
+------------------------------------+
|                  RESTART|       250|
|                 PARAVIEW|       250|
|              SURFACE_CSV|       250|
+------------------------------------+
Writing the convergence history file every 1 inner iterations.
Writing the screen convergence history every 1 inner iterations.
The tabular file format is CSV (.csv).
Convergence history file name: history.
Forces breakdown file name: forces_breakdown.dat.
Surface file name: surface_flow.
Volume file name: flow.
Restart file name: restart_flow.

------------- Config File Boundary Information ( Zone 0 ) ---------------
+-----------------------------------------------------------------------+
|                        Marker Type|                        Marker Name|
+-----------------------------------------------------------------------+
|                     Inlet boundary|                              Inlet|
+-----------------------------------------------------------------------+
|                    Outlet boundary|                             Outlet|
+-----------------------------------------------------------------------+
|                     Heat flux wall|                           Airfoils|
|                                   |                          Symmetry1|
|                                   |                          Symmetry2|
+-----------------------------------------------------------------------+

-------------------- Output Preprocessing ( Zone 0 ) --------------------

WARNING: SURFACE_PRESSURE_DROP can only be computed for at least 2 surfaces (outlet, inlet, ...)

Screen output fields: INNER_ITER, WALL_TIME, RMS_DENSITY, RMS_MOMENTUM-X, RMS_MOMENTUM-Y, RMS_ENERGY
History output group(s): ITER, RMS_RES
Convergence field(s): RMS_DENSITY
Warning: No (valid) fields chosen for time convergence monitoring. Time convergence monitoring inactive.
Volume output fields: COORDINATES, SOLUTION, PRIMITIVE

------------------- Geometry Preprocessing ( Zone 0 ) -------------------
Two dimensional problem.
118454 grid points.
235164 volume elements.
5 surface markers.
1188 boundary elements in index 0 (Marker = Airfoils).
63 boundary elements in index 1 (Marker = Inlet).
220 boundary elements in index 2 (Marker = Symmetry1).
220 boundary elements in index 3 (Marker = Symmetry2).
63 boundary elements in index 4 (Marker = Outlet).
235164 triangles.
Setting point connectivity.
Renumbering points (Reverse Cuthill McKee Ordering).
Recomputing point connectivity.
Setting element connectivity.
Checking the numerical grid orientation.
All volume elements are correctly oriented.
All surface elements are correctly oriented.
Identifying edges and vertices.
Setting the control volume structure.
Area of the computational grid: 0.95648.
Searching for the closest normal neighbors to the surfaces.
Storing a mapping from global to local point index.
Compute the surface curvature.
Max K: 90341.5. Mean K: 343.352. Standard deviation K: 5268.13.
Checking for periodicity.
Computing mesh quality statistics for the dual control volumes.
+--------------------------------------------------------------+
|           Mesh Quality Metric|        Minimum|        Maximum|
+--------------------------------------------------------------+
|    Orthogonality Angle (deg.)|        73.5946|        89.5571|
|     CV Face Area Aspect Ratio|        1.00005|        12.6932|
|           CV Sub-Volume Ratio|              1|        10.8599|
+--------------------------------------------------------------+
Finding max control volume width.
Wetted area = 0 ft.
Area projection in the x-plane = 0 ft, y-plane = 0 ft.
Max. coordinate in the x-direction = -1e+10 ft, y-direction = -1e+10 ft.
Min. coordinate in the x-direction = 1e+10 ft, y-direction = 1e+10 ft.
Computing wall distances.

-------------------- Solver Preprocessing ( Zone 0 ) --------------------
Viscous flow: Computing pressure using the ideal gas law
based on the free-stream temperature and a density computed
from the Reynolds number.
Force coefficients computed using free-stream values.

-- Models:
+------------------------------------------------------------------------------+
|          Viscosity Model|        Conductivity Model|              Fluid Model|
+------------------------------------------------------------------------------+
|               SUTHERLAND|          CONSTANT_PRANDTL|             STANDARD_AIR|
+------------------------------------------------------------------------------+
-- Fluid properties:
+------------------------------------------------------------------------------+
|                  Name|    Dim. value|    Ref. value|      Unit|Non-dim. value|
+------------------------------------------------------------------------------+
|        Ref. Viscosity|     3.737e-07|             1|lbf.s/ft^2|     3.737e-07|
|      Sutherland Temp.|        518.67|             1|         R|        518.67|
|     Sutherland Const.|        198.72|             1|         R|        198.72|
+------------------------------------------------------------------------------+
|        Prandtl (Lam.)|             -|             -|         -|          0.72|
|       Prandtl (Turb.)|             -|             -|         -|           0.9|
+------------------------------------------------------------------------------+
|          Gas Constant|       1716.49|             1|lbf.ft/slug.R|       1716.49|
|      Spec. Heat Ratio|             -|             -|         -|           1.4|
+------------------------------------------------------------------------------+
-- Initial and free-stream conditions:
+------------------------------------------------------------------------------+
|                  Name|    Dim. value|    Ref. value|      Unit|Non-dim. value|
+------------------------------------------------------------------------------+
|       Static Pressure|       2116.19|             1|       psf|       2116.19|
|               Density|   0.000742687|             1| slug/ft^3|   0.000742687|
|           Temperature|          1660|             1|         R|          1660|
|          Total Energy|   7.30294e+06|             1|  ft^2/s^2|   7.30294e+06|
|            Velocity-X|       599.184|             1|      ft/s|       599.184|
|            Velocity-Y|             0|             1|      ft/s|             0|
|    Velocity Magnitude|       599.184|             1|      ft/s|       599.184|
+------------------------------------------------------------------------------+
|             Viscosity|   8.25829e-07|             1|lbf.s/ft^2|   8.25829e-07|
|          Conductivity|             -|             1|lbf/ft.s.R|             -|
+------------------------------------------------------------------------------+
|           Mach Number|             -|             -|         -|           0.3|
|       Reynolds Number|             -|             -|         -|         89810|
+------------------------------------------------------------------------------+
Initialize Jacobian structure (Navier-Stokes). MG level: 0.

------------------- Numerics Preprocessing ( Zone 0 ) -------------------

----------------- Integration Preprocessing ( Zone 0 ) ------------------

------------------- Iteration Preprocessing ( Zone 0 ) ------------------
Euler/Navier-Stokes/RANS fluid iteration.

------------------------------ Begin Solver -----------------------------

Simulation Run using the Single-zone Driver
WARNING: SU2 was not compiled for an AVX-capable architecture. Performance could be better,
         see https://su2code.github.io/docs_v7/Build-SU2-Linux-MacOS/#compiler-optimizations
+-----------------------------------------------------------------------------+
|  Inner_Iter|   Time(sec)|    rms[Rho]|   rms[RhoU]|   rms[RhoV]|   rms[RhoE]|
+-----------------------------------------------------------------------------+
|           0|  6.9500e-01|   -4.943091|   -5.358056|  -15.247859|    2.063925|
|           1|  6.3450e-01|   -4.933732|   -1.064605|   -1.695839|    2.066815|
|           2|  6.2333e-01|   -5.050857|   -1.069816|   -1.532433|    1.996400|
|           3|  6.2325e-01|   -5.120432|   -1.097318|   -1.443894|    1.914731|
|           4|  6.3140e-01|   -5.132050|   -1.135487|   -1.436412|    1.890275|
|           5|  6.4317e-01|   -5.132039|   -1.183322|   -1.479101|    1.885541|
|           6|  6.6429e-01|   -5.159081|   -1.244532|   -1.533958|    1.855072|
|           7|  6.9175e-01|   -5.216282|   -1.320612|   -1.581490|    1.799196|
|           8|  7.2656e-01|   -5.285781|   -1.403545|   -1.640127|    1.733919|
|           9|  7.7340e-01|   -5.350214|   -1.483506|   -1.724875|    1.670866|
|          10|  8.2527e-01|   -5.418921|   -1.563316|   -1.823855|    1.599817|
|          11|  8.9100e-01|   -5.471584|   -1.648572|   -1.910652|    1.538477|
|          12|  9.6885e-01|   -5.555608|   -1.733175|   -1.997499|    1.448501|
|          13|  1.0516e+00|   -5.623121|   -1.828563|   -2.074691|    1.380227|
|          14|  1.1441e+00|   -5.652834|   -1.916736|   -2.163813|    1.353475|
|          15|  1.2580e+00|   -5.713987|   -2.000443|   -2.290010|    1.294311|
|          16|  1.3796e+00|   -5.765814|   -2.070930|   -2.385699|    1.242417|
|          17|  1.4880e+00|   -5.803881|   -2.129667|   -2.504117|    1.195136|
|          18|  1.5829e+00|   -5.864264|   -2.174080|   -2.595377|    1.133899|
|          19|  1.6689e+00|   -5.947434|   -2.211520|   -2.658311|    1.057576|
|          20|  1.7349e+00|   -5.941999|   -2.243337|   -2.701397|    1.073654|
|          21|  1.7951e+00|   -5.935840|   -2.265308|   -2.778784|    1.087234|
|          22|  1.8469e+00|   -5.932606|   -2.288740|   -2.830463|    1.096348|
|          23|  1.8976e+00|   -5.954371|   -2.327696|   -2.857028|    1.076753|
|          24|  1.9468e+00|   -6.018274|   -2.391884|   -2.898207|    1.010386|
|          25|  1.9941e+00|   -6.122590|   -2.474276|   -2.953931|    0.897155|
|          26|  2.0390e+00|   -6.189061|   -2.541419|   -2.969315|    0.815307|
|          27|  2.0791e+00|   -6.174387|   -2.564608|   -2.951219|    0.824183|
|          28|  2.1145e+00|   -6.208878|   -2.563194|   -2.987684|    0.791610|
|          29|  2.1405e+00|   -6.163548|   -2.544996|   -2.981886|    0.844521|
|          30|  2.1649e+00|   -6.154371|   -2.532710|   -2.983374|    0.857382|
|          31|  2.1900e+00|   -6.149083|   -2.525956|   -2.998047|    0.864017|
|          32|  2.2148e+00|   -6.183334|   -2.525607|   -3.032674|    0.829034|
|          33|  2.2386e+00|   -6.207887|   -2.527498|   -3.050940|    0.803006|
|          34|  2.2604e+00|   -6.235748|   -2.535856|   -3.059967|    0.772189|
|          35|  2.2782e+00|   -6.285108|   -2.553629|   -3.076761|    0.718411|
|          36|  2.2958e+00|   -6.310667|   -2.578925|   -3.062404|    0.688710|
|          37|  2.3106e+00|   -6.322236|   -2.613532|   -3.053493|    0.672764|
|          38|  2.3233e+00|   -6.361127|   -2.656029|   -3.063196|    0.628455|
|          39|  2.3361e+00|   -6.417005|   -2.700039|   -3.077683|    0.562046|
|          40|  2.3460e+00|   -6.403710|   -2.731968|   -3.069502|    0.575488|
|          41|  2.3538e+00|   -6.358255|   -2.749971|   -3.044133|    0.628151|
|          42|  2.3625e+00|   -6.396153|   -2.759154|   -3.060667|    0.587040|
|          43|  2.3702e+00|   -6.363269|   -2.755604|   -3.038161|    0.627235|
|          44|  2.3772e+00|   -6.383567|   -2.753652|   -3.044533|    0.609208|
|          45|  2.3866e+00|   -6.395828|   -2.750667|   -3.044354|    0.600138|
|          46|  2.3946e+00|   -6.369992|   -2.748117|   -3.019198|    0.633764|
|          47|  2.4035e+00|   -6.345530|   -2.745539|   -3.008074|    0.660945|
|          48|  2.4137e+00|   -6.456047|   -2.759708|   -3.049085|    0.546327|
|          49|  2.4225e+00|   -6.459862|   -2.763661|   -3.042381|    0.543125|
|          50|  2.4314e+00|   -6.465270|   -2.765716|   -3.044077|    0.539263|
|          51|  2.4421e+00|   -6.432490|   -2.769154|   -3.028366|    0.574281|
|          52|  2.4523e+00|   -6.435072|   -2.767417|   -3.025954|    0.573717|
|          53|  2.4639e+00|   -6.458680|   -2.768692|   -3.036355|    0.551105|
|          54|  2.4738e+00|   -6.475656|   -2.769650|   -3.037656|    0.536256|
|          55|  2.4840e+00|   -6.471811|   -2.767745|   -3.037633|    0.540433|
|          56|  2.4905e+00|   -6.418576|   -2.756209|   -3.024031|    0.597491|
|          57|  2.4973e+00|   -6.434231|   -2.757518|   -3.029906|    0.581711|
|          58|  2.5048e+00|   -6.445065|   -2.758514|   -3.037673|    0.572723|
|          59|  2.5139e+00|   -6.485555|   -2.757509|   -3.051150|    0.535161|
|          60|  2.5236e+00|   -6.490271|   -2.756819|   -3.057083|    0.531540|
|          61|  2.5327e+00|   -6.463671|   -2.754843|   -3.050288|    0.559676|
|          62|  2.5399e+00|   -6.440036|   -2.755154|   -3.046126|    0.581651|
|          63|  2.5464e+00|   -6.418835|   -2.755453|   -3.038807|    0.601584|
|          64|  2.5520e+00|   -6.407937|   -2.759199|   -3.033618|    0.613950|
|          65|  2.5577e+00|   -6.405942|   -2.761430|   -3.044805|    0.614835|
|          66|  2.5631e+00|   -6.421961|   -2.763152|   -3.046886|    0.596227|
|          67|  2.5682e+00|   -6.460789|   -2.770718|   -3.058861|    0.558307|
|          68|  2.5719e+00|   -6.422576|   -2.770385|   -3.049750|    0.594278|
|          69|  2.5758e+00|   -6.433755|   -2.770865|   -3.064633|    0.581869|
|          70|  2.5807e+00|   -6.491926|   -2.771379|   -3.077247|    0.523422|
|          71|  2.5857e+00|   -6.499221|   -2.772330|   -3.084503|    0.516204|
|          72|  2.5894e+00|   -6.506700|   -2.768313|   -3.084252|    0.508905|
|          73|  2.5930e+00|   -6.497413|   -2.765559|   -3.079670|    0.516668|
|          74|  2.5954e+00|   -6.475220|   -2.762486|   -3.077531|    0.538596|
|          75|  2.5979e+00|   -6.509131|   -2.760415|   -3.090861|    0.506259|
|          76|  2.6013e+00|   -6.545801|   -2.761631|   -3.103623|    0.471968|
|          77|  2.6047e+00|   -6.529484|   -2.761778|   -3.101564|    0.486741|
|          78|  2.6078e+00|   -6.549911|   -2.761948|   -3.108035|    0.468075|
|          79|  2.6100e+00|   -6.548891|   -2.765055|   -3.113612|    0.469527|
|          80|  2.6131e+00|   -6.566445|   -2.766504|   -3.122037|    0.453579|
|          81|  2.6165e+00|   -6.552848|   -2.770029|   -3.117980|    0.464950|
|          82|  2.6204e+00|   -6.568375|   -2.775247|   -3.127530|    0.451513|
|          83|  2.6250e+00|   -6.566815|   -2.778757|   -3.128500|    0.453347|
|          84|  2.6286e+00|   -6.576710|   -2.784382|   -3.133545|    0.444960|
|          85|  2.6321e+00|   -6.543387|   -2.788179|   -3.126536|    0.475728|
|          86|  2.6357e+00|   -6.571717|   -2.790226|   -3.140476|    0.449672|
|          87|  2.6392e+00|   -6.573843|   -2.794329|   -3.136199|    0.448210|
|          88|  2.6427e+00|   -6.598209|   -2.796597|   -3.145602|    0.424225|
|          89|  2.6461e+00|   -6.578978|   -2.797988|   -3.140931|    0.442661|
|          90|  2.6495e+00|   -6.625426|   -2.800479|   -3.153045|    0.399542|
|          91|  2.6529e+00|   -6.584908|   -2.800961|   -3.142197|    0.436927|
|          92|  2.6564e+00|   -6.566496|   -2.798935|   -3.137227|    0.454386|
|          93|  2.6596e+00|   -6.529639|   -2.795895|   -3.125265|    0.489987|
|          94|  2.6626e+00|   -6.596711|   -2.798357|   -3.144601|    0.425565|
|          95|  2.6663e+00|   -6.613421|   -2.798704|   -3.148673|    0.410532|
|          96|  2.6707e+00|   -6.557781|   -2.794693|   -3.130358|    0.462779|
|          97|  2.6757e+00|   -6.532796|   -2.788199|   -3.118454|    0.486617|
|          98|  2.6813e+00|   -6.566011|   -2.788071|   -3.130217|    0.454476|
|          99|  2.6852e+00|   -6.544810|   -2.787302|   -3.121646|    0.475423|
|         100|  2.6866e+00|   -6.509595|   -2.784867|   -3.113924|    0.507551|
|         101|  2.6905e+00|   -6.557018|   -2.788835|   -3.128510|    0.460364|
|         102|  2.6940e+00|   -6.523484|   -2.788374|   -3.117792|    0.492392|
|         103|  2.6974e+00|   -6.553705|   -2.790964|   -3.125524|    0.462662|
|         104|  2.7001e+00|   -6.555556|   -2.793169|   -3.122961|    0.459290|
|         105|  2.7020e+00|   -6.551168|   -2.793888|   -3.118106|    0.462518|
|         106|  2.7039e+00|   -6.520274|   -2.795335|   -3.105767|    0.491400|
|         107|  2.7057e+00|   -6.492913|   -2.796170|   -3.093469|    0.517577|
|         108|  2.7069e+00|   -6.500224|   -2.797934|   -3.097122|    0.509957|
|         109|  2.7087e+00|   -6.546049|   -2.803523|   -3.104250|    0.460739|
|         110|  2.7098e+00|   -6.521386|   -2.803332|   -3.093203|    0.485286|
|         111|  2.7109e+00|   -6.497635|   -2.801360|   -3.085446|    0.509175|
|         112|  2.7119e+00|   -6.468259|   -2.795876|   -3.063624|    0.539055|
|         113|  2.7130e+00|   -6.484086|   -2.796979|   -3.066141|    0.520685|
|         114|  2.7140e+00|   -6.532233|   -2.802632|   -3.078297|    0.473308|
|         115|  2.7150e+00|   -6.555754|   -2.802399|   -3.076083|    0.448714|
|         116|  2.7160e+00|   -6.543806|   -2.799612|   -3.070386|    0.461136|
|         117|  2.7163e+00|   -6.437732|   -2.789280|   -3.026241|    0.570175|
|         118|  2.7166e+00|   -6.388378|   -2.787264|   -3.021091|    0.617841|
|         119|  2.7174e+00|   -6.501950|   -2.786426|   -3.044248|    0.503404|
|         120|  2.7183e+00|   -6.514947|   -2.788708|   -3.040847|    0.492925|
|         121|  2.7192e+00|   -6.521651|   -2.785384|   -3.037589|    0.485136|
|         122|  2.7187e+00|   -6.514469|   -2.782355|   -3.030270|    0.492862|
|         123|  2.7201e+00|   -6.490077|   -2.778737|   -3.017333|    0.517130|
|         124|  2.7215e+00|   -6.465686|   -2.773639|   -3.011183|    0.541618|
|         125|  2.7229e+00|   -6.503868|   -2.774352|   -3.015352|    0.503245|
|         126|  2.7243e+00|   -6.528242|   -2.773384|   -3.012634|    0.480261|
|         127|  2.7256e+00|   -6.531709|   -2.770957|   -3.006349|    0.474521|
|         128|  2.7263e+00|   -6.482837|   -2.768176|   -2.998052|    0.523759|
|         129|  2.7270e+00|   -6.476623|   -2.768038|   -2.990951|    0.531718|
|         130|  2.7285e+00|   -6.512313|   -2.765549|   -2.992759|    0.495963|
|         131|  2.7293e+00|   -6.461553|   -2.760989|   -2.972699|    0.547112|
|         132|  2.7300e+00|   -6.441422|   -2.760169|   -2.970208|    0.567837|
|         133|  2.7306e+00|   -6.460594|   -2.759182|   -2.974217|    0.547709|
|         134|  2.7319e+00|   -6.490213|   -2.757498|   -2.966259|    0.519263|
|         135|  2.7326e+00|   -6.464583|   -2.757127|   -2.961840|    0.543797|
|         136|  2.7279e+00|   -6.457880|   -2.755642|   -2.959956|    0.551256|
|         137|  2.7203e+00|   -6.574197|   -2.761981|   -2.964645|    0.438983|
|         138|  2.7140e+00|   -6.633761|   -2.765172|   -2.963991|    0.382922|
|         139|  2.7092e+00|   -6.663416|   -2.765660|   -2.966306|    0.354163|
|         140|  2.7014e+00|   -6.639172|   -2.764797|   -2.963877|    0.376642|
|         141|  2.6907e+00|   -6.656880|   -2.766468|   -2.959719|    0.360975|
|         142|  2.6781e+00|   -6.719409|   -2.768846|   -2.959551|    0.301097|
|         143|  2.6663e+00|   -6.810749|   -2.769335|   -2.961673|    0.214645|
|         144|  2.6557e+00|   -6.842652|   -2.770174|   -2.962515|    0.186138|
|         145|  2.6463e+00|   -6.776679|   -2.770243|   -2.964334|    0.246682|
|         146|  2.6382e+00|   -6.740941|   -2.768934|   -2.963369|    0.281146|
|         147|  2.6309e+00|   -6.708062|   -2.768673|   -2.960076|    0.312853|
|         148|  2.6248e+00|   -6.699723|   -2.768173|   -2.959714|    0.319852|
|         149|  2.6159e+00|   -6.630467|   -2.767211|   -2.952962|    0.385483|
|         150|  2.6050e+00|   -6.671456|   -2.766414|   -2.953077|    0.345883|
|         151|  2.5928e+00|   -6.813175|   -2.769342|   -2.956512|    0.211076|
|         152|  2.5814e+00|   -6.942724|   -2.770487|   -2.957713|    0.092229|
|         153|  2.5707e+00|   -6.937767|   -2.770789|   -2.957706|    0.097706|
|         154|  2.5608e+00|   -6.913176|   -2.770828|   -2.957195|    0.120773|
|         155|  2.5517e+00|   -6.816193|   -2.770208|   -2.956929|    0.209911|
|         156|  2.5436e+00|   -6.832085|   -2.769684|   -2.957451|    0.194618|
|         157|  2.5367e+00|   -6.770729|   -2.768313|   -2.954905|    0.251310|
|         158|  2.5308e+00|   -6.681865|   -2.766763|   -2.950180|    0.336515|
|         159|  2.5223e+00|   -6.676904|   -2.765668|   -2.949351|    0.340444|
|         160|  2.5122e+00|   -6.724035|   -2.765957|   -2.948315|    0.295005|
|         161|  2.5010e+00|   -6.802349|   -2.767800|   -2.950743|    0.220119|
|         162|  2.4902e+00|   -6.909779|   -2.768471|   -2.950386|    0.122285|
|         163|  2.4801e+00|   -6.949527|   -2.768785|   -2.949675|    0.086633|
|         164|  2.4707e+00|   -6.826694|   -2.768513|   -2.950066|    0.199305|
|         165|  2.4621e+00|   -6.798551|   -2.767954|   -2.949129|    0.225539|
|         166|  2.4541e+00|   -6.759516|   -2.767917|   -2.948671|    0.261184|
|         167|  2.4472e+00|   -6.795855|   -2.767763|   -2.949312|    0.226615|
|         168|  2.4412e+00|   -6.746589|   -2.766666|   -2.949776|    0.273924|
|         169|  2.4360e+00|   -6.710654|   -2.765362|   -2.945024|    0.308163|
|         170|  2.4287e+00|   -6.614534|   -2.763956|   -2.937903|    0.401027|
|         171|  2.4197e+00|   -6.756581|   -2.765265|   -2.942551|    0.263331|
|         172|  2.4098e+00|   -6.836290|   -2.766184|   -2.943360|    0.188411|
|         173|  2.4002e+00|   -6.931245|   -2.766909|   -2.943442|    0.101331|
|         174|  2.3914e+00|   -6.822160|   -2.766341|   -2.940847|    0.199784|
|         175|  2.3831e+00|   -6.824308|   -2.765658|   -2.943886|    0.200582|
|         176|  2.3736e+00|   -6.834766|   -2.766038|   -2.944545|    0.192321|
|         177|  2.3635e+00|   -6.925208|   -2.766369|   -2.945776|    0.108766|
|         178|  2.3537e+00|   -7.023799|   -2.766871|   -2.945556|    0.022896|
|         179|  2.3445e+00|   -7.044084|   -2.766895|   -2.945639|    0.004964|
|         180|  2.3357e+00|   -7.023317|   -2.766970|   -2.945771|    0.021982|
|         181|  2.3274e+00|   -6.998178|   -2.766863|   -2.945830|    0.043784|
|         182|  2.3198e+00|   -6.937512|   -2.766420|   -2.945299|    0.097332|
|         183|  2.3128e+00|   -6.888909|   -2.765632|   -2.944409|    0.140619|
|         184|  2.3043e+00|   -6.842733|   -2.764527|   -2.941078|    0.182610|
|         185|  2.2952e+00|   -6.916007|   -2.764645|   -2.941481|    0.114379|
|         186|  2.2864e+00|   -7.020283|   -2.764918|   -2.942865|    0.021817|
|         187|  2.2782e+00|   -7.009667|   -2.765143|   -2.942204|    0.030739|
|         188|  2.2704e+00|   -6.930289|   -2.765034|   -2.941724|    0.102880|
|         189|  2.2619e+00|   -6.924592|   -2.765233|   -2.941644|    0.107432|
|         190|  2.2528e+00|   -6.976617|   -2.765679|   -2.941236|    0.061681|
|         191|  2.2437e+00|   -7.089637|   -2.765779|   -2.941215|   -0.037197|
|         192|  2.2346e+00|   -7.110193|   -2.765686|   -2.940719|   -0.054379|
|         193|  2.2258e+00|   -7.105086|   -2.765531|   -2.940328|   -0.050255|
|         194|  2.2171e+00|   -7.115085|   -2.765485|   -2.939914|   -0.057947|
|         195|  2.2087e+00|   -7.078066|   -2.765439|   -2.939475|   -0.026512|
|         196|  2.2006e+00|   -7.072065|   -2.765421|   -2.939028|   -0.020530|
|         197|  2.1930e+00|   -7.050985|   -2.765363|   -2.939100|   -0.004938|
|         198|  2.1857e+00|   -7.037461|   -2.765314|   -2.938832|    0.008833|
|         199|  2.1787e+00|   -6.986985|   -2.764713|   -2.938235|    0.051489|
|         200|  2.1723e+00|   -6.894423|   -2.763708|   -2.937257|    0.135565|
|         201|  2.1665e+00|   -6.829424|   -2.763546|   -2.937670|    0.195208|
|         202|  2.1597e+00|   -6.834887|   -2.763028|   -2.938676|    0.190830|
|         203|  2.1521e+00|   -6.888059|   -2.762580|   -2.938270|    0.139842|
|         204|  2.1442e+00|   -6.977140|   -2.763261|   -2.936676|    0.059640|
|         205|  2.1366e+00|   -7.085918|   -2.763091|   -2.936646|   -0.035462|
|         206|  2.1292e+00|   -7.064108|   -2.762869|   -2.936832|   -0.018321|
|         207|  2.1221e+00|   -7.033667|   -2.762756|   -2.937657|    0.008113|
|         208|  2.1153e+00|   -7.048598|   -2.763304|   -2.938610|   -0.004105|
|         209|  2.1088e+00|   -7.036487|   -2.763679|   -2.939609|    0.007312|
|         210|  2.1026e+00|   -6.878498|   -2.762655|   -2.937717|    0.148877|
|         211|  2.0957e+00|   -6.871702|   -2.762847|   -2.937291|    0.156031|
|         212|  2.0892e+00|   -6.983455|   -2.763237|   -2.938156|    0.054513|
|         213|  2.0829e+00|   -6.906115|   -2.762675|   -2.938483|    0.125055|
|         214|  2.0771e+00|   -6.903314|   -2.762608|   -2.937956|    0.126577|
|         215|  2.0718e+00|   -6.842307|   -2.761962|   -2.936817|    0.183543|
|         216|  2.0656e+00|   -6.820991|   -2.761454|   -2.935993|    0.202735|
|         217|  2.0587e+00|   -6.927237|   -2.762495|   -2.936236|    0.104274|
|         218|  2.0521e+00|   -7.012357|   -2.762749|   -2.936239|    0.026688|
|         219|  2.0459e+00|   -6.986314|   -2.762590|   -2.935542|    0.050007|
|         220|  2.0401e+00|   -6.927126|   -2.762203|   -2.935336|    0.104958|
|         221|  2.0345e+00|   -6.879139|   -2.761804|   -2.934688|    0.149430|
|         222|  2.0293e+00|   -6.844039|   -2.761592|   -2.933500|    0.181033|
|         223|  2.0253e+00|   -6.819421|   -2.761150|   -2.932950|    0.204267|
|         224|  2.0214e+00|   -6.813414|   -2.760431|   -2.931843|    0.209562|
|         225|  2.0180e+00|   -6.776781|   -2.759972|   -2.929841|    0.244152|
|         226|  2.0132e+00|   -6.704216|   -2.758599|   -2.926353|    0.313695|
|         227|  2.0074e+00|   -6.801606|   -2.759046|   -2.926469|    0.220212|
|         228|  2.0012e+00|   -6.876491|   -2.759724|   -2.927238|    0.148273|
|         229|  1.9954e+00|   -7.001338|   -2.760269|   -2.928006|    0.034641|
|         230|  1.9898e+00|   -6.989293|   -2.760198|   -2.928898|    0.045174|
|         231|  1.9844e+00|   -6.980448|   -2.760431|   -2.930468|    0.053548|
|         232|  1.9795e+00|   -6.897788|   -2.759989|   -2.930042|    0.129487|
|         233|  1.9748e+00|   -6.820652|   -2.759257|   -2.928163|    0.201901|
|         234|  1.9706e+00|   -6.713882|   -2.756820|   -2.920925|    0.302064|
|         235|  1.9654e+00|   -6.714118|   -2.755292|   -2.925980|    0.301124|
|         236|  1.9598e+00|   -6.859343|   -2.757631|   -2.928146|    0.165795|
|         237|  1.9543e+00|   -6.929782|   -2.758115|   -2.928749|    0.100037|
|         238|  1.9492e+00|   -6.957466|   -2.757886|   -2.929942|    0.075421|
|         239|  1.9445e+00|   -6.916517|   -2.757508|   -2.929976|    0.113156|
|         240|  1.9392e+00|   -6.933879|   -2.757524|   -2.930456|    0.097646|
|         241|  1.9341e+00|   -7.010673|   -2.757685|   -2.931280|    0.028997|
|         242|  1.9293e+00|   -6.969550|   -2.757235|   -2.930521|    0.065163|
|         243|  1.9239e+00|   -6.942367|   -2.757046|   -2.929932|    0.090035|
|         244|  1.9182e+00|   -7.023546|   -2.757477|   -2.929869|    0.017526|
|         245|  1.9122e+00|   -7.078099|   -2.757685|   -2.929925|   -0.029450|
|         246|  1.9065e+00|   -7.121709|   -2.757734|   -2.929976|   -0.066376|
|         247|  1.9008e+00|   -7.125801|   -2.757713|   -2.930023|   -0.070193|
|         248|  1.8952e+00|   -7.121920|   -2.757750|   -2.930274|   -0.066597|
|         249|  1.8899e+00|   -7.105290|   -2.757819|   -2.930694|   -0.052510|
|         250|  1.8848e+00|   -7.092105|   -2.757856|   -2.930689|   -0.041107|
+-----------------------------------------------------------------------+
|        File Writing Summary       |              Filename             |
+-----------------------------------------------------------------------+
|SU2 binary restart                 |restart_flow.dat                   |
|Paraview                           |flow.vtu                           |
|CSV file                           |surface_flow.csv                   |
+-----------------------------------------------------------------------+
+-----------------------------------------------------------------------------+
|  Inner_Iter|   Time(sec)|    rms[Rho]|   rms[RhoU]|   rms[RhoV]|   rms[RhoE]|
+-----------------------------------------------------------------------------+
|         251|  1.8808e+00|   -7.083666|   -2.757941|   -2.930493|   -0.034477|
|         252|  1.8755e+00|   -7.078898|   -2.757946|   -2.930843|   -0.030548|
|         253|  1.8701e+00|   -7.100010|   -2.758009|   -2.930807|   -0.048807|
|         254|  1.8643e+00|   -7.114258|   -2.757999|   -2.930629|   -0.060750|
|         255|  1.8586e+00|   -7.129408|   -2.757952|   -2.930621|   -0.073635|
|         256|  1.8530e+00|   -7.133543|   -2.757919|   -2.930623|   -0.076867|
|         257|  1.8474e+00|   -7.135959|   -2.757880|   -2.930614|   -0.079126|
|         258|  1.8418e+00|   -7.137663|   -2.757858|   -2.930606|   -0.080352|
|         259|  1.8365e+00|   -7.137469|   -2.757839|   -2.930615|   -0.080522|
|         260|  1.8311e+00|   -7.136722|   -2.757838|   -2.930572|   -0.079389|
|         261|  1.8260e+00|   -7.134843|   -2.757845|   -2.930568|   -0.077877|
|         262|  1.8211e+00|   -7.127664|   -2.757884|   -2.930531|   -0.071888|
|         263|  1.8159e+00|   -7.122333|   -2.757928|   -2.930475|   -0.067580|
|         264|  1.8106e+00|   -7.127642|   -2.757940|   -2.930549|   -0.071791|
|         265|  1.8053e+00|   -7.135424|   -2.757952|   -2.930648|   -0.078605|
|         266|  1.8002e+00|   -7.135194|   -2.757961|   -2.930679|   -0.078537|
|         267|  1.7951e+00|   -7.136556|   -2.757964|   -2.930649|   -0.079424|
|         268|  1.7903e+00|   -7.136067|   -2.757968|   -2.930620|   -0.079092|
|         269|  1.7855e+00|   -7.128772|   -2.757966|   -2.930711|   -0.073318|
|         270|  1.7808e+00|   -7.107151|   -2.757976|   -2.930825|   -0.055046|
|         271|  1.7764e+00|   -7.123946|   -2.758054|   -2.930814|   -0.068954|
|         272|  1.7722e+00|   -7.106473|   -2.758010|   -2.930420|   -0.054399|
|         273|  1.7676e+00|   -7.093322|   -2.757889|   -2.930030|   -0.043494|
|         274|  1.7629e+00|   -7.112267|   -2.757876|   -2.929992|   -0.059557|
|         275|  1.7582e+00|   -7.128890|   -2.757861|   -2.930001|   -0.073735|
|         276|  1.7536e+00|   -7.126190|   -2.757808|   -2.929903|   -0.071695|
|         277|  1.7492e+00|   -7.119460|   -2.757726|   -2.929701|   -0.066469|
|         278|  1.7446e+00|   -7.119148|   -2.757651|   -2.929463|   -0.065735|
|         279|  1.7398e+00|   -7.127971|   -2.757643|   -2.929333|   -0.073719|
|         280|  1.7349e+00|   -7.136169|   -2.757635|   -2.929309|   -0.080098|
|         281|  1.7301e+00|   -7.138863|   -2.757627|   -2.929285|   -0.082449|
|         282|  1.7252e+00|   -7.140642|   -2.757623|   -2.929284|   -0.083859|
|         283|  1.7203e+00|   -7.141535|   -2.757619|   -2.929281|   -0.084612|
|         284|  1.7154e+00|   -7.142085|   -2.757615|   -2.929278|   -0.085056|
|         285|  1.7107e+00|   -7.142365|   -2.757612|   -2.929273|   -0.085293|
|         286|  1.7059e+00|   -7.142522|   -2.757608|   -2.929265|   -0.085435|
|         287|  1.7011e+00|   -7.142593|   -2.757605|   -2.929261|   -0.085513|
|         288|  1.6963e+00|   -7.142643|   -2.757602|   -2.929257|   -0.085569|
|         289|  1.6916e+00|   -7.142658|   -2.757600|   -2.929253|   -0.085603|
|         290|  1.6869e+00|   -7.142664|   -2.757597|   -2.929251|   -0.085634|
|         291|  1.6822e+00|   -7.141974|   -2.757596|   -2.929259|   -0.085169|
|         292|  1.6776e+00|   -7.142793|   -2.757592|   -2.929247|   -0.085781|
|         293|  1.6730e+00|   -7.142918|   -2.757590|   -2.929245|   -0.085900|
|         294|  1.6685e+00|   -7.143004|   -2.757587|   -2.929245|   -0.085992|
|         295|  1.6640e+00|   -7.143070|   -2.757585|   -2.929244|   -0.086066|
|         296|  1.6595e+00|   -7.143095|   -2.757583|   -2.929244|   -0.086110|
|         297|  1.6550e+00|   -7.143095|   -2.757580|   -2.929244|   -0.086136|
|         298|  1.6505e+00|   -7.143054|   -2.757578|   -2.929243|   -0.086119|
|         299|  1.6461e+00|   -7.142974|   -2.757575|   -2.929242|   -0.086074|
|         300|  1.6417e+00|   -7.142826|   -2.757572|   -2.929240|   -0.085976|
|         301|  1.6374e+00|   -7.142667|   -2.757569|   -2.929238|   -0.085891|
|         302|  1.6332e+00|   -7.142597|   -2.757566|   -2.929233|   -0.085847|
|         303|  1.6290e+00|   -7.142487|   -2.757563|   -2.929224|   -0.085782|
|         304|  1.6248e+00|   -7.142072|   -2.757558|   -2.929210|   -0.085452|
|         305|  1.6205e+00|   -7.141991|   -2.757555|   -2.929197|   -0.085392|
|         306|  1.6163e+00|   -7.141897|   -2.757552|   -2.929182|   -0.085305|
|         307|  1.6121e+00|   -7.141768|   -2.757548|   -2.929167|   -0.085192|
|         308|  1.6080e+00|   -7.141593|   -2.757544|   -2.929148|   -0.085065|
|         309|  1.6038e+00|   -7.141429|   -2.757540|   -2.929124|   -0.084962|
|         310|  1.5997e+00|   -7.141385|   -2.757536|   -2.929101|   -0.084929|
|         311|  1.5957e+00|   -7.141483|   -2.757532|   -2.929085|   -0.085022|
|         312|  1.5917e+00|   -7.141649|   -2.757529|   -2.929069|   -0.085130|
|         313|  1.5877e+00|   -7.141701|   -2.757527|   -2.929053|   -0.085207|
|         314|  1.5837e+00|   -7.141869|   -2.757525|   -2.929042|   -0.085303|
|         315|  1.5797e+00|   -7.141917|   -2.757524|   -2.929032|   -0.085370|
|         316|  1.5759e+00|   -7.141974|   -2.757523|   -2.929023|   -0.085414|
|         317|  1.5721e+00|   -7.141924|   -2.757523|   -2.929013|   -0.085366|
|         318|  1.5683e+00|   -7.141893|   -2.757523|   -2.929003|   -0.085246|
|         319|  1.5645e+00|   -7.141957|   -2.757524|   -2.928998|   -0.085261|
|         320|  1.5608e+00|   -7.141900|   -2.757525|   -2.928990|   -0.085182|
|         321|  1.5571e+00|   -7.141934|   -2.757526|   -2.928984|   -0.085179|
|         322|  1.5534e+00|   -7.141953|   -2.757526|   -2.928977|   -0.085175|
|         323|  1.5498e+00|   -7.141987|   -2.757527|   -2.928972|   -0.085186|
|         324|  1.5461e+00|   -7.141673|   -2.757523|   -2.928973|   -0.085000|
|         325|  1.5425e+00|   -7.141664|   -2.757525|   -2.928973|   -0.085027|
|         326|  1.5389e+00|   -7.142100|   -2.757531|   -2.928973|   -0.085330|
|         327|  1.5355e+00|   -7.142077|   -2.757536|   -2.928983|   -0.085312|
|         328|  1.5320e+00|   -7.142242|   -2.757545|   -2.928993|   -0.085359|
|         329|  1.5285e+00|   -7.141841|   -2.757557|   -2.928999|   -0.084939|
|         330|  1.5250e+00|   -7.142279|   -2.757564|   -2.929005|   -0.085341|
|         331|  1.5214e+00|   -7.142787|   -2.757567|   -2.929006|   -0.085697|
|         332|  1.5178e+00|   -7.142860|   -2.757570|   -2.929004|   -0.085770|
|         333|  1.5143e+00|   -7.143130|   -2.757572|   -2.929006|   -0.085969|
|         334|  1.5108e+00|   -7.143238|   -2.757575|   -2.929006|   -0.086045|
|         335|  1.5074e+00|   -7.143360|   -2.757577|   -2.929006|   -0.086110|
|         336|  1.5041e+00|   -7.143398|   -2.757581|   -2.929007|   -0.086076|
|         337|  1.5007e+00|   -7.143269|   -2.757586|   -2.929004|   -0.086014|
|         338|  1.4974e+00|   -7.142972|   -2.757589|   -2.929003|   -0.085725|
|         339|  1.4939e+00|   -7.142966|   -2.757590|   -2.929000|   -0.085813|
|         340|  1.4905e+00|   -7.142882|   -2.757591|   -2.928999|   -0.085800|
|         341|  1.4871e+00|   -7.142915|   -2.757591|   -2.929000|   -0.085880|
|         342|  1.4838e+00|   -7.143182|   -2.757592|   -2.929003|   -0.086076|
|         343|  1.4804e+00|   -7.143472|   -2.757593|   -2.929007|   -0.086282|
|         344|  1.4771e+00|   -7.143719|   -2.757594|   -2.929011|   -0.086464|
|         345|  1.4737e+00|   -7.143932|   -2.757595|   -2.929016|   -0.086634|
|         346|  1.4705e+00|   -7.144105|   -2.757595|   -2.929021|   -0.086766|
|         347|  1.4672e+00|   -7.144236|   -2.757596|   -2.929027|   -0.086874|
|         348|  1.4639e+00|   -7.144342|   -2.757597|   -2.929034|   -0.086961|
|         349|  1.4607e+00|   -7.144425|   -2.757599|   -2.929042|   -0.087035|
|         350|  1.4575e+00|   -7.144508|   -2.757600|   -2.929050|   -0.087098|
|         351|  1.4543e+00|   -7.144577|   -2.757601|   -2.929059|   -0.087151|
|         352|  1.4511e+00|   -7.144650|   -2.757603|   -2.929068|   -0.087193|
|         353|  1.4479e+00|   -7.144723|   -2.757604|   -2.929077|   -0.087218|
|         354|  1.4448e+00|   -7.144781|   -2.757605|   -2.929085|   -0.087226|
|         355|  1.4419e+00|   -7.144805|   -2.757607|   -2.929094|   -0.087215|
|         356|  1.4391e+00|   -7.144706|   -2.757609|   -2.929100|   -0.087025|
|         357|  1.4360e+00|   -7.143567|   -2.757612|   -2.929099|   -0.085979|
|         358|  1.4329e+00|   -7.143262|   -2.757614|   -2.929101|   -0.085659|
|         359|  1.4299e+00|   -7.143521|   -2.757615|   -2.929112|   -0.086082|
|         360|  1.4268e+00|   -7.143859|   -2.757618|   -2.929117|   -0.086263|
|         361|  1.4238e+00|   -7.144301|   -2.757620|   -2.929128|   -0.086718|
|         362|  1.4208e+00|   -7.144477|   -2.757621|   -2.929140|   -0.086929|
|         363|  1.4178e+00|   -7.144423|   -2.757622|   -2.929150|   -0.086955|
|         364|  1.4148e+00|   -7.144406|   -2.757623|   -2.929159|   -0.086979|
|         365|  1.4118e+00|   -7.144505|   -2.757624|   -2.929168|   -0.087086|
|         366|  1.4089e+00|   -7.144572|   -2.757625|   -2.929177|   -0.087153|
|         367|  1.4060e+00|   -7.144615|   -2.757626|   -2.929186|   -0.087199|
|         368|  1.4031e+00|   -7.144651|   -2.757627|   -2.929195|   -0.087232|
|         369|  1.4002e+00|   -7.144669|   -2.757628|   -2.929205|   -0.087254|
|         370|  1.3973e+00|   -7.144677|   -2.757629|   -2.929214|   -0.087264|
|         371|  1.3944e+00|   -7.144671|   -2.757630|   -2.929223|   -0.087270|
|         372|  1.3916e+00|   -7.144633|   -2.757632|   -2.929232|   -0.087252|
|         373|  1.3887e+00|   -7.144550|   -2.757633|   -2.929240|   -0.087206|
|         374|  1.3859e+00|   -7.144458|   -2.757634|   -2.929249|   -0.087146|
|         375|  1.3831e+00|   -7.144392|   -2.757635|   -2.929257|   -0.087107|
|         376|  1.3804e+00|   -7.144381|   -2.757637|   -2.929265|   -0.087101|
|         377|  1.3777e+00|   -7.144310|   -2.757639|   -2.929274|   -0.087054|
|         378|  1.3751e+00|   -7.144216|   -2.757641|   -2.929286|   -0.086987|
|         379|  1.3724e+00|   -7.144026|   -2.757645|   -2.929300|   -0.086843|
|         380|  1.3698e+00|   -7.143456|   -2.757647|   -2.929311|   -0.086314|
|         381|  1.3673e+00|   -7.142639|   -2.757654|   -2.929332|   -0.085755|
|         382|  1.3648e+00|   -7.140240|   -2.757663|   -2.929346|   -0.083858|
|         383|  1.3624e+00|   -7.138195|   -2.757668|   -2.929318|   -0.082014|
|         384|  1.3600e+00|   -7.139357|   -2.757670|   -2.929266|   -0.082879|
|         385|  1.3577e+00|   -7.139343|   -2.757682|   -2.929353|   -0.082928|
|         386|  1.3554e+00|   -7.137158|   -2.757704|   -2.929370|   -0.080687|
|         387|  1.3531e+00|   -7.133961|   -2.757697|   -2.929479|   -0.078348|
|         388|  1.3507e+00|   -7.136601|   -2.757685|   -2.929461|   -0.079947|
|         389|  1.3482e+00|   -7.139355|   -2.757661|   -2.929493|   -0.082879|
|         390|  1.3457e+00|   -7.140520|   -2.757653|   -2.929477|   -0.083940|
|         391|  1.3431e+00|   -7.140922|   -2.757648|   -2.929472|   -0.084289|
|         392|  1.3406e+00|   -7.141431|   -2.757645|   -2.929458|   -0.084686|
|         393|  1.3381e+00|   -7.141699|   -2.757639|   -2.929451|   -0.084923|
|         394|  1.3357e+00|   -7.141833|   -2.757634|   -2.929424|   -0.085030|
|         395|  1.3333e+00|   -7.141861|   -2.757625|   -2.929405|   -0.085075|
|         396|  1.3308e+00|   -7.141792|   -2.757614|   -2.929374|   -0.085035|
|         397|  1.3284e+00|   -7.140661|   -2.757602|   -2.929352|   -0.084149|
|         398|  1.3260e+00|   -7.140900|   -2.757595|   -2.929321|   -0.084389|
|         399|  1.3236e+00|   -7.140713|   -2.757582|   -2.929274|   -0.084224|
|         400|  1.3212e+00|   -7.140973|   -2.757574|   -2.929257|   -0.084468|
|         401|  1.3187e+00|   -7.141183|   -2.757568|   -2.929241|   -0.084642|
|         402|  1.3162e+00|   -7.141347|   -2.757562|   -2.929226|   -0.084787|
|         403|  1.3138e+00|   -7.141450|   -2.757556|   -2.929208|   -0.084864|
|         404|  1.3114e+00|   -7.141541|   -2.757549|   -2.929194|   -0.084944|
|         405|  1.3090e+00|   -7.141243|   -2.757542|   -2.929174|   -0.084699|
|         406|  1.3066e+00|   -7.141618|   -2.757536|   -2.929159|   -0.085016|
|         407|  1.3042e+00|   -7.141615|   -2.757528|   -2.929141|   -0.085013|
|         408|  1.3018e+00|   -7.141588|   -2.757521|   -2.929123|   -0.085002|
|         409|  1.2994e+00|   -7.141508|   -2.757514|   -2.929103|   -0.084945|
|         410|  1.2971e+00|   -7.141457|   -2.757506|   -2.929083|   -0.084914|
|         411|  1.2947e+00|   -7.141426|   -2.757498|   -2.929063|   -0.084889|
|         412|  1.2924e+00|   -7.141335|   -2.757489|   -2.929042|   -0.084820|
|         413|  1.2900e+00|   -7.141217|   -2.757481|   -2.929021|   -0.084728|
|         414|  1.2877e+00|   -7.141024|   -2.757473|   -2.928999|   -0.084581|
|         415|  1.2854e+00|   -7.140740|   -2.757465|   -2.928977|   -0.084372|
|         416|  1.2831e+00|   -7.140684|   -2.757457|   -2.928957|   -0.084330|
|         417|  1.2809e+00|   -7.140848|   -2.757450|   -2.928937|   -0.084448|
|         418|  1.2786e+00|   -7.141033|   -2.757443|   -2.928917|   -0.084602|
|         419|  1.2763e+00|   -7.141173|   -2.757437|   -2.928896|   -0.084712|
|         420|  1.2741e+00|   -7.141392|   -2.757431|   -2.928874|   -0.084859|
|         421|  1.2719e+00|   -7.141316|   -2.757424|   -2.928849|   -0.084811|
|         422|  1.2698e+00|   -7.141314|   -2.757418|   -2.928816|   -0.084671|
|         423|  1.2677e+00|   -7.141380|   -2.757413|   -2.928792|   -0.084740|
|         424|  1.2656e+00|   -7.141400|   -2.757404|   -2.928772|   -0.084890|
|         425|  1.2635e+00|   -7.141420|   -2.757400|   -2.928759|   -0.084870|
|         426|  1.2614e+00|   -7.141292|   -2.757391|   -2.928713|   -0.084812|
|         427|  1.2593e+00|   -7.141319|   -2.757385|   -2.928685|   -0.084779|
|         428|  1.2573e+00|   -7.141309|   -2.757375|   -2.928656|   -0.084823|
|         429|  1.2552e+00|   -7.141147|   -2.757363|   -2.928621|   -0.084705|
|         430|  1.2531e+00|   -7.139327|   -2.757345|   -2.928605|   -0.083561|
|         431|  1.2512e+00|   -7.140546|   -2.757327|   -2.928497|   -0.084169|
|         432|  1.2492e+00|   -7.139873|   -2.757307|   -2.928400|   -0.083725|
|         433|  1.2473e+00|   -7.138745|   -2.757279|   -2.928280|   -0.082773|
|         434|  1.2455e+00|   -7.137799|   -2.757250|   -2.928137|   -0.081880|
|         435|  1.2437e+00|   -7.132497|   -2.757202|   -2.927874|   -0.077802|
|         436|  1.2418e+00|   -7.129482|   -2.757123|   -2.927582|   -0.075251|
|         437|  1.2401e+00|   -7.133714|   -2.757056|   -2.927502|   -0.079215|
|         438|  1.2385e+00|   -7.130465|   -2.757013|   -2.927514|   -0.076315|
|         439|  1.2369e+00|   -7.113250|   -2.756956|   -2.927563|   -0.062593|
|         440|  1.2354e+00|   -7.111927|   -2.756943|   -2.927736|   -0.061656|
|         441|  1.2340e+00|   -7.099658|   -2.756943|   -2.928067|   -0.050693|
|         442|  1.2327e+00|   -7.033427|   -2.756935|   -2.928724|    0.006256|
|         443|  1.2316e+00|   -7.009921|   -2.756780|   -2.928573|    0.027258|
|         444|  1.2306e+00|   -7.006431|   -2.756388|   -2.928535|    0.029986|
|         445|  1.2299e+00|   -6.963670|   -2.756097|   -2.928330|    0.068605|
|         446|  1.2294e+00|   -6.912587|   -2.755634|   -2.927873|    0.115066|
|         447|  1.2292e+00|   -6.908854|   -2.754931|   -2.927939|    0.115289|
|         448|  1.2292e+00|   -6.847843|   -2.754707|   -2.927042|    0.173493|
|         449|  1.2295e+00|   -6.770816|   -2.753084|   -2.925055|    0.247105|
|         450|  1.2300e+00|   -6.735627|   -2.751473|   -2.923045|    0.281437|
|         451|  1.2308e+00|   -6.641755|   -2.750618|   -2.915449|    0.373052|
|         452|  1.2319e+00|   -6.641732|   -2.748199|   -2.916536|    0.371847|
|         453|  1.2336e+00|   -6.591078|   -2.744681|   -2.909177|    0.421164|
|         454|  1.2358e+00|   -6.564950|   -2.742927|   -2.909020|    0.445879|
|         455|  1.2384e+00|   -6.559435|   -2.739977|   -2.910597|    0.449788|
|         456|  1.2416e+00|   -6.521845|   -2.734464|   -2.907393|    0.486770|
|         457|  1.2453e+00|   -6.454986|   -2.726276|   -2.899225|    0.553038|
|         458|  1.2494e+00|   -6.445704|   -2.721573|   -2.897798|    0.561797|
|         459|  1.2530e+00|   -6.439263|   -2.718463|   -2.899487|    0.566818|
|         460|  1.2565e+00|   -6.476573|   -2.716343|   -2.906841|    0.526862|
|         461|  1.2599e+00|   -6.457186|   -2.711664|   -2.900652|    0.546986|
|         462|  1.2632e+00|   -6.421310|   -2.707105|   -2.898869|    0.582242|
|         463|  1.2665e+00|   -6.434810|   -2.707366|   -2.900133|    0.567401|
|         464|  1.2697e+00|   -6.433573|   -2.706186|   -2.901589|    0.567051|
|         465|  1.2730e+00|   -6.425454|   -2.706489|   -2.901508|    0.575917|
|         466|  1.2762e+00|   -6.472686|   -2.708021|   -2.906295|    0.527264|
|         467|  1.2795e+00|   -6.478384|   -2.708948|   -2.908650|    0.522139|
|         468|  1.2827e+00|   -6.471104|   -2.708474|   -2.904599|    0.529113|
|         469|  1.2859e+00|   -6.430604|   -2.707497|   -2.897917|    0.569667|
|         470|  1.2891e+00|   -6.446711|   -2.707930|   -2.900820|    0.553132|
|         471|  1.2922e+00|   -6.485654|   -2.707968|   -2.906199|    0.512386|
|         472|  1.2954e+00|   -6.495551|   -2.708010|   -2.905726|    0.502711|
|         473|  1.2985e+00|   -6.495481|   -2.706939|   -2.904647|    0.503385|
|         474|  1.3016e+00|   -6.483667|   -2.704966|   -2.901823|    0.517723|
|         475|  1.3049e+00|   -6.484967|   -2.702877|   -2.901941|    0.516369|
|         476|  1.3063e+00|   -6.466081|   -2.699731|   -2.897129|    0.536464|
|         477|  1.3070e+00|   -6.561417|   -2.703514|   -2.895727|    0.448098|
|         478|  1.3070e+00|   -6.643574|   -2.707994|   -2.899901|    0.367718|
|         479|  1.3062e+00|   -6.735927|   -2.710313|   -2.899642|    0.278222|
|         480|  1.3051e+00|   -6.813348|   -2.711346|   -2.900358|    0.203523|
|         481|  1.3036e+00|   -6.895792|   -2.712220|   -2.901708|    0.124864|
|         482|  1.3021e+00|   -6.973417|   -2.712757|   -2.901939|    0.053371|
|         483|  1.3003e+00|   -7.060693|   -2.713072|   -2.902007|   -0.026712|
|         484|  1.2985e+00|   -7.075416|   -2.713156|   -2.901840|   -0.040882|
|         485|  1.2966e+00|   -7.086355|   -2.713178|   -2.901798|   -0.050554|
|         486|  1.2946e+00|   -7.090236|   -2.713180|   -2.901754|   -0.054573|
|         487|  1.2927e+00|   -7.091869|   -2.713179|   -2.901732|   -0.055981|
|         488|  1.2908e+00|   -7.093144|   -2.713179|   -2.901714|   -0.056860|
|         489|  1.2889e+00|   -7.093663|   -2.713178|   -2.901693|   -0.057360|
|         490|  1.2870e+00|   -7.093340|   -2.713178|   -2.901663|   -0.057038|
|         491|  1.2852e+00|   -7.094047|   -2.713175|   -2.901632|   -0.057832|
|         492|  1.2832e+00|   -7.093046|   -2.713174|   -2.901612|   -0.057685|
|         493|  1.2813e+00|   -7.094939|   -2.713173|   -2.901604|   -0.058395|
|         494|  1.2797e+00|   -7.095466|   -2.713174|   -2.901592|   -0.058411|
|         495|  1.2779e+00|   -7.095080|   -2.713174|   -2.901582|   -0.058477|
|         496|  1.2760e+00|   -7.095317|   -2.713175|   -2.901573|   -0.058335|
|         497|  1.2741e+00|   -7.094826|   -2.713175|   -2.901568|   -0.058418|
|         498|  1.2722e+00|   -7.095407|   -2.713178|   -2.901565|   -0.058595|
|         499|  1.2703e+00|   -7.095339|   -2.713179|   -2.901565|   -0.058869|
|         500|  1.2684e+00|   -7.095109|   -2.713183|   -2.901564|   -0.058634|
+-----------------------------------------------------------------------+
|        File Writing Summary       |              Filename             |
+-----------------------------------------------------------------------+
|SU2 binary restart                 |restart_flow.dat                   |
|Paraview                           |flow.vtu                           |
|CSV file                           |surface_flow.csv                   |
+-----------------------------------------------------------------------+
+-----------------------------------------------------------------------------+
|  Inner_Iter|   Time(sec)|    rms[Rho]|   rms[RhoU]|   rms[RhoV]|   rms[RhoE]|
+-----------------------------------------------------------------------------+
|         501|  1.2669e+00|   -7.095787|   -2.713186|   -2.901566|   -0.059162|
|         502|  1.2651e+00|   -7.095567|   -2.713191|   -2.901567|   -0.059331|
|         503|  1.2632e+00|   -7.096925|   -2.713196|   -2.901572|   -0.059917|
|         504|  1.2614e+00|   -7.096263|   -2.713203|   -2.901573|   -0.060090|
|         505|  1.2596e+00|   -7.097962|   -2.713209|   -2.901581|   -0.060554|
|         506|  1.2577e+00|   -7.096837|   -2.713215|   -2.901582|   -0.060398|
|         507|  1.2559e+00|   -7.097884|   -2.713222|   -2.901592|   -0.060734|
|         508|  1.2541e+00|   -7.098010|   -2.713229|   -2.901598|   -0.060786|
|         509|  1.2523e+00|   -7.098182|   -2.713236|   -2.901606|   -0.060890|
|         510|  1.2505e+00|   -7.098458|   -2.713243|   -2.901612|   -0.061018|
|         511|  1.2487e+00|   -7.098446|   -2.713251|   -2.901623|   -0.061040|
|         512|  1.2469e+00|   -7.098046|   -2.713259|   -2.901636|   -0.060672|
|         513|  1.2451e+00|   -7.097823|   -2.713266|   -2.901647|   -0.060535|
|         514|  1.2433e+00|   -7.098143|   -2.713275|   -2.901655|   -0.060729|
|         515|  1.2416e+00|   -7.098659|   -2.713283|   -2.901662|   -0.061160|
|         516|  1.2398e+00|   -7.099021|   -2.713292|   -2.901663|   -0.061347|
|         517|  1.2381e+00|   -7.099024|   -2.713300|   -2.901670|   -0.061371|
|         518|  1.2363e+00|   -7.099208|   -2.713308|   -2.901677|   -0.061448|
|         519|  1.2346e+00|   -7.099276|   -2.713316|   -2.901686|   -0.061540|
|         520|  1.2328e+00|   -7.099462|   -2.713323|   -2.901693|   -0.061623|
|         521|  1.2311e+00|   -7.099493|   -2.713331|   -2.901702|   -0.061691|
|         522|  1.2294e+00|   -7.099528|   -2.713338|   -2.901711|   -0.061666|
|         523|  1.2277e+00|   -7.099138|   -2.713345|   -2.901721|   -0.061408|
|         524|  1.2260e+00|   -7.099647|   -2.713353|   -2.901728|   -0.061731|
|         525|  1.2243e+00|   -7.099226|   -2.713361|   -2.901734|   -0.061440|
|         526|  1.2226e+00|   -7.099687|   -2.713367|   -2.901739|   -0.061709|
|         527|  1.2209e+00|   -7.099560|   -2.713374|   -2.901747|   -0.061618|
|         528|  1.2192e+00|   -7.099265|   -2.713382|   -2.901754|   -0.061322|
|         529|  1.2175e+00|   -7.099278|   -2.713389|   -2.901760|   -0.061381|
|         530|  1.2158e+00|   -7.099580|   -2.713396|   -2.901762|   -0.061547|
|         531|  1.2142e+00|   -7.099707|   -2.713402|   -2.901766|   -0.061684|
|         532|  1.2125e+00|   -7.099954|   -2.713409|   -2.901767|   -0.061797|
|         533|  1.2109e+00|   -7.100219|   -2.713415|   -2.901767|   -0.062032|
|         534|  1.2092e+00|   -7.100375|   -2.713420|   -2.901759|   -0.062031|
|         535|  1.2076e+00|   -7.100150|   -2.713425|   -2.901756|   -0.061878|
|         536|  1.2059e+00|   -7.100295|   -2.713431|   -2.901755|   -0.061928|
|         537|  1.2043e+00|   -7.100346|   -2.713436|   -2.901757|   -0.062035|
|         538|  1.2027e+00|   -7.100595|   -2.713441|   -2.901758|   -0.062160|
|         539|  1.2011e+00|   -7.100696|   -2.713445|   -2.901759|   -0.062277|
|         540|  1.1995e+00|   -7.100904|   -2.713450|   -2.901759|   -0.062364|
|         541|  1.1979e+00|   -7.100939|   -2.713454|   -2.901762|   -0.062440|
|         542|  1.1963e+00|   -7.101127|   -2.713458|   -2.901762|   -0.062510|
|         543|  1.1947e+00|   -7.101148|   -2.713462|   -2.901765|   -0.062579|
|         544|  1.1931e+00|   -7.101312|   -2.713466|   -2.901766|   -0.062635|
|         545|  1.1915e+00|   -7.101220|   -2.713469|   -2.901771|   -0.062625|
|         546|  1.1900e+00|   -7.101126|   -2.713472|   -2.901774|   -0.062487|
|         547|  1.1884e+00|   -7.101216|   -2.713474|   -2.901776|   -0.062605|
|         548|  1.1868e+00|   -7.101515|   -2.713477|   -2.901775|   -0.062750|
|         549|  1.1853e+00|   -7.101708|   -2.713480|   -2.901773|   -0.062917|
|         550|  1.1838e+00|   -7.101866|   -2.713483|   -2.901769|   -0.062935|
|         551|  1.1823e+00|   -7.101748|   -2.713487|   -2.901769|   -0.062887|
|         552|  1.1809e+00|   -7.101941|   -2.713491|   -2.901765|   -0.062871|
|         553|  1.1794e+00|   -7.101957|   -2.713497|   -2.901766|   -0.062933|
|         554|  1.1779e+00|   -7.101966|   -2.713505|   -2.901762|   -0.062725|
|         555|  1.1765e+00|   -7.101315|   -2.713514|   -2.901760|   -0.062188|
|         556|  1.1752e+00|   -7.100583|   -2.713527|   -2.901760|   -0.061406|
|         557|  1.1738e+00|   -7.100024|   -2.713546|   -2.901769|   -0.060947|
|         558|  1.1725e+00|   -7.099114|   -2.713576|   -2.901788|   -0.059924|
|         559|  1.1712e+00|   -7.098293|   -2.713617|   -2.901887|   -0.059322|
|         560|  1.1700e+00|   -7.095594|   -2.713668|   -2.902100|   -0.056386|
|         561|  1.1689e+00|   -7.093800|   -2.713713|   -2.902396|   -0.054436|
|         562|  1.1678e+00|   -7.095412|   -2.713746|   -2.902845|   -0.055436|
|         563|  1.1667e+00|   -7.090644|   -2.713727|   -2.903275|   -0.050881|
|         564|  1.1657e+00|   -7.078995|   -2.713612|   -2.903420|   -0.039914|
|         565|  1.1648e+00|   -7.052377|   -2.713424|   -2.903594|   -0.016349|
|         566|  1.1641e+00|   -6.981997|   -2.713237|   -2.903168|    0.047694|
|         567|  1.1635e+00|   -6.956485|   -2.712997|   -2.902891|    0.070635|
|         568|  1.1630e+00|   -6.925387|   -2.712711|   -2.902768|    0.100953|
|         569|  1.1627e+00|   -6.874294|   -2.712739|   -2.903081|    0.147816|
|         570|  1.1626e+00|   -6.842879|   -2.712477|   -2.901658|    0.177620|
|         571|  1.1626e+00|   -6.779951|   -2.712528|   -2.900318|    0.237600|
|         572|  1.1629e+00|   -6.750750|   -2.712494|   -2.897993|    0.266525|
|         573|  1.1626e+00|   -6.724821|   -2.711916|   -2.895312|    0.290348|
|         574|  1.1619e+00|   -6.791910|   -2.712510|   -2.895365|    0.227035|
|         575|  1.1614e+00|   -6.881545|   -2.713221|   -2.894809|    0.140778|
|         576|  1.1610e+00|   -6.815437|   -2.712873|   -2.893711|    0.203767|
|         577|  1.1608e+00|   -6.812570|   -2.713375|   -2.893789|    0.206419|
|         578|  1.1608e+00|   -6.777498|   -2.712796|   -2.894548|    0.241204|
|         579|  1.1602e+00|   -6.734023|   -2.712294|   -2.893454|    0.283225|
|         580|  1.1594e+00|   -6.750755|   -2.712386|   -2.892282|    0.266616|
|         581|  1.1584e+00|   -6.893826|   -2.713164|   -2.891399|    0.130223|
|         582|  1.1573e+00|   -6.988352|   -2.713282|   -2.891748|    0.041572|
|         583|  1.1561e+00|   -7.016633|   -2.713013|   -2.891207|    0.015899|
|         584|  1.1548e+00|   -7.053150|   -2.713006|   -2.891051|   -0.017235|
|         585|  1.1535e+00|   -7.068736|   -2.713040|   -2.891153|   -0.030621|
|         586|  1.1521e+00|   -7.073661|   -2.713066|   -2.891225|   -0.034941|
|         587|  1.1508e+00|   -7.075524|   -2.713072|   -2.891247|   -0.036659|
|         588|  1.1495e+00|   -7.076142|   -2.713080|   -2.891280|   -0.037492|
|         589|  1.1481e+00|   -7.077045|   -2.713087|   -2.891305|   -0.038134|
|         590|  1.1468e+00|   -7.076861|   -2.713091|   -2.891333|   -0.038270|
|         591|  1.1455e+00|   -7.077810|   -2.713100|   -2.891345|   -0.038927|
|         592|  1.1442e+00|   -7.078112|   -2.713106|   -2.891361|   -0.039247|
|         593|  1.1429e+00|   -7.078554|   -2.713113|   -2.891374|   -0.039612|
|         594|  1.1416e+00|   -7.078683|   -2.713120|   -2.891384|   -0.039820|
|         595|  1.1403e+00|   -7.078928|   -2.713127|   -2.891394|   -0.040062|
|         596|  1.1390e+00|   -7.079635|   -2.713133|   -2.891406|   -0.040582|
|         597|  1.1377e+00|   -7.080043|   -2.713141|   -2.891416|   -0.040963|
|         598|  1.1365e+00|   -7.080437|   -2.713149|   -2.891424|   -0.041296|
|         599|  1.1352e+00|   -7.080827|   -2.713157|   -2.891431|   -0.041612|
|         600|  1.1338e+00|   -7.081139|   -2.713165|   -2.891436|   -0.041860|
|         601|  1.1325e+00|   -7.081303|   -2.713173|   -2.891441|   -0.042008|
|         602|  1.1312e+00|   -7.081455|   -2.713182|   -2.891446|   -0.042151|
|         603|  1.1298e+00|   -7.081653|   -2.713191|   -2.891450|   -0.042324|
|         604|  1.1285e+00|   -7.081626|   -2.713200|   -2.891452|   -0.042266|
|         605|  1.1272e+00|   -7.081156|   -2.713210|   -2.891444|   -0.041740|
|         606|  1.1259e+00|   -7.080661|   -2.713220|   -2.891429|   -0.041232|
|         607|  1.1247e+00|   -7.080163|   -2.713232|   -2.891412|   -0.040824|
|         608|  1.1235e+00|   -7.079627|   -2.713244|   -2.891391|   -0.040546|
|         609|  1.1222e+00|   -7.079301|   -2.713259|   -2.891373|   -0.040379|
|         610|  1.1210e+00|   -7.081819|   -2.713281|   -2.891411|   -0.042473|
|         611|  1.1198e+00|   -7.083075|   -2.713311|   -2.891466|   -0.043496|
|         612|  1.1187e+00|   -7.082904|   -2.713355|   -2.891549|   -0.043345|
|         613|  1.1176e+00|   -7.082017|   -2.713399|   -2.891607|   -0.042493|
|         614|  1.1165e+00|   -7.080915|   -2.713473|   -2.891735|   -0.041860|
|         615|  1.1154e+00|   -7.080318|   -2.713545|   -2.891809|   -0.041273|
|         616|  1.1144e+00|   -7.077549|   -2.713635|   -2.892029|   -0.039092|
|         617|  1.1135e+00|   -7.074837|   -2.713723|   -2.892215|   -0.036467|
|         618|  1.1125e+00|   -7.066733|   -2.713817|   -2.892444|   -0.029748|
|         619|  1.1117e+00|   -7.062711|   -2.713912|   -2.892755|   -0.025555|
|         620|  1.1109e+00|   -7.065161|   -2.713978|   -2.893152|   -0.027424|
|         621|  1.1101e+00|   -7.038016|   -2.713957|   -2.893294|   -0.001631|
|         622|  1.1093e+00|   -7.006651|   -2.713842|   -2.893512|    0.027965|
|         623|  1.1085e+00|   -7.038552|   -2.713868|   -2.893917|   -0.000998|
|         624|  1.1078e+00|   -7.040472|   -2.713857|   -2.893812|   -0.002583|
|         625|  1.1072e+00|   -7.037188|   -2.713791|   -2.894279|    0.001091|
|         626|  1.1069e+00|   -7.021414|   -2.713728|   -2.894357|    0.015664|
|         627|  1.1065e+00|   -6.962785|   -2.713563|   -2.894028|    0.067323|
|         628|  1.1061e+00|   -6.897974|   -2.713285|   -2.892435|    0.127844|
|         629|  1.1059e+00|   -6.838562|   -2.712602|   -2.892464|    0.183686|
|         630|  1.1060e+00|   -6.838062|   -2.712457|   -2.891636|    0.183306|
|         631|  1.1062e+00|   -6.778429|   -2.711509|   -2.890032|    0.240334|
|         632|  1.1067e+00|   -6.774915|   -2.711343|   -2.888350|    0.242682|
|         633|  1.1074e+00|   -6.741238|   -2.710431|   -2.886460|    0.274329|
|         634|  1.1084e+00|   -6.714332|   -2.709266|   -2.884845|    0.300980|
|         635|  1.1097e+00|   -6.680270|   -2.706838|   -2.883116|    0.333793|
|         636|  1.1111e+00|   -6.625878|   -2.703877|   -2.879860|    0.386332|
|         637|  1.1129e+00|   -6.624030|   -2.699912|   -2.877648|    0.386868|
|         638|  1.1150e+00|   -6.562378|   -2.693989|   -2.873937|    0.446399|
|         639|  1.1177e+00|   -6.536720|   -2.689420|   -2.871612|    0.471074|
|         640|  1.1204e+00|   -6.473038|   -2.682176|   -2.866785|    0.532871|
|         641|  1.1231e+00|   -6.448446|   -2.676186|   -2.864127|    0.557164|
|         642|  1.1258e+00|   -6.469870|   -2.672628|   -2.861308|    0.536483|
|         643|  1.1286e+00|   -6.477626|   -2.670290|   -2.861060|    0.528433|
|         644|  1.1314e+00|   -6.467673|   -2.666743|   -2.854687|    0.537356|
|         645|  1.1341e+00|   -6.469652|   -2.663276|   -2.852704|    0.536222|
|         646|  1.1369e+00|   -6.483248|   -2.663836|   -2.851772|    0.522937|
|         647|  1.1396e+00|   -6.511157|   -2.663387|   -2.853031|    0.493781|
|         648|  1.1423e+00|   -6.499612|   -2.660902|   -2.848437|    0.506124|
|         649|  1.1451e+00|   -6.477558|   -2.657468|   -2.843467|    0.530033|
|         650|  1.1478e+00|   -6.493539|   -2.654126|   -2.840287|    0.513859|
|         651|  1.1505e+00|   -6.487067|   -2.649915|   -2.836504|    0.519709|
|         652|  1.1533e+00|   -6.473079|   -2.645539|   -2.830624|    0.534916|
|         653|  1.1560e+00|   -6.476546|   -2.639550|   -2.827507|    0.532414|
|         654|  1.1585e+00|   -6.472621|   -2.634643|   -2.823842|    0.536775|
|         655|  1.1611e+00|   -6.508483|   -2.629909|   -2.822052|    0.500185|
|         656|  1.1636e+00|   -6.477204|   -2.624081|   -2.815188|    0.531401|
|         657|  1.1662e+00|   -6.490882|   -2.619221|   -2.812552|    0.516866|
|         658|  1.1687e+00|   -6.489298|   -2.614914|   -2.810132|    0.517569|
|         659|  1.1713e+00|   -6.490535|   -2.611317|   -2.806754|    0.515941|
|         660|  1.1738e+00|   -6.466838|   -2.607176|   -2.801952|    0.539118|
|         661|  1.1763e+00|   -6.472020|   -2.603604|   -2.800310|    0.532776|
|         662|  1.1788e+00|   -6.459414|   -2.602635|   -2.798639|    0.543810|
|         663|  1.1813e+00|   -6.459941|   -2.600329|   -2.797247|    0.542875|
|         664|  1.1837e+00|   -6.415721|   -2.598050|   -2.790545|    0.587632|
|         665|  1.1861e+00|   -6.421239|   -2.597283|   -2.791759|    0.581169|
|         666|  1.1875e+00|   -6.433964|   -2.596940|   -2.791378|    0.567067|
|         667|  1.1883e+00|   -6.530811|   -2.599951|   -2.792461|    0.473825|
|         668|  1.1885e+00|   -6.604566|   -2.602813|   -2.792615|    0.401887|
|         669|  1.1882e+00|   -6.655882|   -2.603886|   -2.792677|    0.350830|
|         670|  1.1875e+00|   -6.717276|   -2.605000|   -2.792074|    0.289944|
|         671|  1.1867e+00|   -6.778341|   -2.605141|   -2.792637|    0.228021|
|         672|  1.1857e+00|   -6.864415|   -2.605659|   -2.793128|    0.138701|
|         673|  1.1846e+00|   -6.887572|   -2.605775|   -2.793057|    0.115059|
|         674|  1.1836e+00|   -6.909020|   -2.605871|   -2.793126|    0.092671|
|         675|  1.1826e+00|   -6.914449|   -2.605916|   -2.793222|    0.087239|
|         676|  1.1816e+00|   -6.909981|   -2.605949|   -2.793447|    0.092114|
|         677|  1.1807e+00|   -6.907024|   -2.605962|   -2.793626|    0.095475|
|         678|  1.1799e+00|   -6.903161|   -2.605960|   -2.793810|    0.099218|
|         679|  1.1791e+00|   -6.881670|   -2.605924|   -2.793444|    0.122184|
|         680|  1.1785e+00|   -6.889103|   -2.605855|   -2.793880|    0.113951|
|         681|  1.1778e+00|   -6.867891|   -2.605870|   -2.794056|    0.137990|
|         682|  1.1770e+00|   -6.828798|   -2.605704|   -2.793816|    0.177617|
|         683|  1.1761e+00|   -6.868863|   -2.605775|   -2.793816|    0.136313|
|         684|  1.1750e+00|   -6.899363|   -2.605783|   -2.793252|    0.104779|
|         685|  1.1739e+00|   -6.914371|   -2.605753|   -2.793056|    0.088867|
|         686|  1.1727e+00|   -6.919731|   -2.605726|   -2.792948|    0.083175|
|         687|  1.1716e+00|   -6.922680|   -2.605706|   -2.792905|    0.080331|
|         688|  1.1703e+00|   -6.923163|   -2.605697|   -2.792882|    0.079717|
|         689|  1.1691e+00|   -6.923915|   -2.605687|   -2.792865|    0.079099|
|         690|  1.1679e+00|   -6.923895|   -2.605682|   -2.792853|    0.079007|
|         691|  1.1668e+00|   -6.924380|   -2.605673|   -2.792837|    0.078648|
|         692|  1.1656e+00|   -6.924460|   -2.605668|   -2.792823|    0.078465|
|         693|  1.1645e+00|   -6.924806|   -2.605660|   -2.792806|    0.078221|
|         694|  1.1633e+00|   -6.924207|   -2.605655|   -2.792781|    0.078687|
|         695|  1.1622e+00|   -6.924995|   -2.605649|   -2.792784|    0.078009|
|         696|  1.1610e+00|   -6.925048|   -2.605648|   -2.792793|    0.077882|
|         697|  1.1598e+00|   -6.925393|   -2.605644|   -2.792791|    0.077652|
|         698|  1.1586e+00|   -6.925308|   -2.605644|   -2.792795|    0.077638|
|         699|  1.1574e+00|   -6.925526|   -2.605641|   -2.792794|    0.077514|
|         700|  1.1563e+00|   -6.925469|   -2.605642|   -2.792798|    0.077481|
|         701|  1.1551e+00|   -6.925622|   -2.605639|   -2.792798|    0.077404|
|         702|  1.1539e+00|   -6.925557|   -2.605641|   -2.792803|    0.077382|
|         703|  1.1527e+00|   -6.925698|   -2.605639|   -2.792805|    0.077310|
|         704|  1.1516e+00|   -6.925595|   -2.605641|   -2.792811|    0.077323|
|         705|  1.1504e+00|   -6.925761|   -2.605640|   -2.792814|    0.077232|
|         706|  1.1492e+00|   -6.925620|   -2.605643|   -2.792821|    0.077278|
|         707|  1.1481e+00|   -6.925813|   -2.605642|   -2.792825|    0.077168|
|         708|  1.1471e+00|   -6.925662|   -2.605646|   -2.792837|    0.077220|
|         709|  1.1461e+00|   -6.925856|   -2.605645|   -2.792838|    0.077117|
|         710|  1.1449e+00|   -6.925617|   -2.605649|   -2.792844|    0.077251|
|         711|  1.1438e+00|   -6.925846|   -2.605649|   -2.792849|    0.077121|
|         712|  1.1426e+00|   -6.925630|   -2.605653|   -2.792857|    0.077233|
|         713|  1.1415e+00|   -6.925870|   -2.605653|   -2.792862|    0.077093|
|         714|  1.1404e+00|   -6.925634|   -2.605658|   -2.792871|    0.077225|
|         715|  1.1392e+00|   -6.925881|   -2.605659|   -2.792876|    0.077078|
|         716|  1.1381e+00|   -6.925630|   -2.605664|   -2.792884|    0.077222|
|         717|  1.1370e+00|   -6.925882|   -2.605664|   -2.792889|    0.077070|
|         718|  1.1359e+00|   -6.925622|   -2.605670|   -2.792897|    0.077222|
|         719|  1.1348e+00|   -6.925868|   -2.605670|   -2.792902|    0.077075|
|         720|  1.1336e+00|   -6.925599|   -2.605676|   -2.792909|    0.077238|
|         721|  1.1325e+00|   -6.925818|   -2.605676|   -2.792913|    0.077115|
|         722|  1.1314e+00|   -6.925539|   -2.605682|   -2.792918|    0.077292|
|         723|  1.1303e+00|   -6.925716|   -2.605682|   -2.792921|    0.077209|
|         724|  1.1292e+00|   -6.925424|   -2.605687|   -2.792923|    0.077405|
|         725|  1.1281e+00|   -6.925556|   -2.605687|   -2.792924|    0.077358|
|         726|  1.1270e+00|   -6.925232|   -2.605692|   -2.792922|    0.077591|
|         727|  1.1260e+00|   -6.925323|   -2.605692|   -2.792920|    0.077570|
|         728|  1.1249e+00|   -6.924665|   -2.605696|   -2.792914|    0.078102|
|         729|  1.1238e+00|   -6.925042|   -2.605696|   -2.792913|    0.077842|
|         730|  1.1227e+00|   -6.924702|   -2.605700|   -2.792906|    0.078116|
|         731|  1.1216e+00|   -6.924792|   -2.605701|   -2.792899|    0.078090|
|         732|  1.1205e+00|   -6.924509|   -2.605705|   -2.792888|    0.078245|
|         733|  1.1195e+00|   -6.924691|   -2.605706|   -2.792884|    0.078075|
|         734|  1.1184e+00|   -6.924525|   -2.605710|   -2.792876|    0.078149|
|         735|  1.1173e+00|   -6.924767|   -2.605711|   -2.792874|    0.078015|
|         736|  1.1162e+00|   -6.924653|   -2.605716|   -2.792868|    0.078040|
|         737|  1.1152e+00|   -6.924971|   -2.605718|   -2.792871|    0.077765|
|         738|  1.1141e+00|   -6.924942|   -2.605723|   -2.792867|    0.077743|
|         739|  1.1131e+00|   -6.925178|   -2.605725|   -2.792870|    0.077578|
|         740|  1.1121e+00|   -6.924972|   -2.605731|   -2.792862|    0.077755|
|         741|  1.1111e+00|   -6.925168|   -2.605736|   -2.792877|    0.077616|
|         742|  1.1101e+00|   -6.925047|   -2.605745|   -2.792862|    0.077743|
|         743|  1.1091e+00|   -6.924943|   -2.605754|   -2.792875|    0.077871|
|         744|  1.1082e+00|   -6.924606|   -2.605772|   -2.792872|    0.078189|
|         745|  1.1072e+00|   -6.924149|   -2.605789|   -2.792886|    0.078613|
|         746|  1.1063e+00|   -6.923810|   -2.605815|   -2.792870|    0.078973|
|         747|  1.1054e+00|   -6.922909|   -2.605846|   -2.792926|    0.079971|
|         748|  1.1046e+00|   -6.921333|   -2.605882|   -2.792918|    0.081742|
|         749|  1.1038e+00|   -6.917027|   -2.605903|   -2.792947|    0.085937|
|         750|  1.1030e+00|   -6.914188|   -2.605911|   -2.792819|    0.088983|
+-----------------------------------------------------------------------+
|        File Writing Summary       |              Filename             |
+-----------------------------------------------------------------------+
|SU2 binary restart                 |restart_flow.dat                   |
|Paraview                           |flow.vtu                           |
|CSV file                           |surface_flow.csv                   |
+-----------------------------------------------------------------------+
+-----------------------------------------------------------------------------+
|  Inner_Iter|   Time(sec)|    rms[Rho]|   rms[RhoU]|   rms[RhoV]|   rms[RhoE]|
+-----------------------------------------------------------------------------+
|         751|  1.1025e+00|   -6.910683|   -2.605892|   -2.792610|    0.091937|
|         752|  1.1018e+00|   -6.908229|   -2.605856|   -2.792302|    0.094585|
|         753|  1.1012e+00|   -6.909003|   -2.605826|   -2.792229|    0.093998|
|         754|  1.1006e+00|   -6.897625|   -2.605816|   -2.792296|    0.105967|
|         755|  1.1001e+00|   -6.883040|   -2.605807|   -2.792580|    0.120336|
|         756|  1.0997e+00|   -6.849458|   -2.605737|   -2.792000|    0.156119|
|         757|  1.0994e+00|   -6.842311|   -2.605529|   -2.792466|    0.162684|
|         758|  1.0993e+00|   -6.836193|   -2.605487|   -2.792241|    0.169030|
|         759|  1.0994e+00|   -6.782975|   -2.604969|   -2.791249|    0.223421|
|         760|  1.0995e+00|   -6.733005|   -2.604261|   -2.790035|    0.273807|
|         761|  1.1000e+00|   -6.702364|   -2.603560|   -2.787979|    0.305967|
|         762|  1.0999e+00|   -6.689081|   -2.601985|   -2.786878|    0.316733|
|         763|  1.0995e+00|   -6.727882|   -2.602511|   -2.785398|    0.278652|
|         764|  1.0992e+00|   -6.791792|   -2.602931|   -2.785084|    0.214270|
|         765|  1.0990e+00|   -6.784638|   -2.602866|   -2.784992|    0.221316|
|         766|  1.0989e+00|   -6.794119|   -2.602618|   -2.784862|    0.211966|
|         767|  1.0991e+00|   -6.730073|   -2.601821|   -2.783119|    0.277104|
|         768|  1.0988e+00|   -6.722548|   -2.601019|   -2.782369|    0.283533|
|         769|  1.0983e+00|   -6.757155|   -2.600873|   -2.782134|    0.249210|
|         770|  1.0976e+00|   -6.807753|   -2.601238|   -2.781614|    0.198453|
|         771|  1.0968e+00|   -6.871652|   -2.601261|   -2.781546|    0.131182|
|         772|  1.0960e+00|   -6.885266|   -2.601147|   -2.781269|    0.118137|
|         773|  1.0951e+00|   -6.895691|   -2.601095|   -2.781103|    0.106900|
|         774|  1.0942e+00|   -6.900341|   -2.601052|   -2.781059|    0.102353|
|         775|  1.0932e+00|   -6.901839|   -2.601030|   -2.781009|    0.100437|
|         776|  1.0923e+00|   -6.902521|   -2.601018|   -2.780993|    0.099860|
|         777|  1.0914e+00|   -6.903030|   -2.601008|   -2.780973|    0.099295|
|         778|  1.0905e+00|   -6.903662|   -2.600999|   -2.780950|    0.098707|
|         779|  1.0895e+00|   -6.903890|   -2.600989|   -2.780925|    0.098468|
|         780|  1.0886e+00|   -6.904117|   -2.600980|   -2.780902|    0.098247|
|         781|  1.0877e+00|   -6.904290|   -2.600970|   -2.780878|    0.098081|
|         782|  1.0868e+00|   -6.904431|   -2.600961|   -2.780854|    0.097960|
|         783|  1.0859e+00|   -6.904547|   -2.600952|   -2.780829|    0.097859|
|         784|  1.0850e+00|   -6.904587|   -2.600943|   -2.780803|    0.097796|
|         785|  1.0840e+00|   -6.904546|   -2.600935|   -2.780779|    0.097778|
|         786|  1.0830e+00|   -6.905007|   -2.600929|   -2.780762|    0.097380|
|         787|  1.0821e+00|   -6.905280|   -2.600925|   -2.780741|    0.097164|
|         788|  1.0811e+00|   -6.905390|   -2.600920|   -2.780720|    0.097077|
|         789|  1.0802e+00|   -6.905457|   -2.600915|   -2.780699|    0.097015|
|         790|  1.0793e+00|   -6.905516|   -2.600911|   -2.780679|    0.096962|
|         791|  1.0783e+00|   -6.905564|   -2.600906|   -2.780659|    0.096921|
|         792|  1.0774e+00|   -6.905606|   -2.600902|   -2.780640|    0.096877|
|         793|  1.0764e+00|   -6.905532|   -2.600898|   -2.780630|    0.096914|
|         794|  1.0755e+00|   -6.905264|   -2.600894|   -2.780624|    0.097132|
|         795|  1.0745e+00|   -6.905802|   -2.600890|   -2.780596|    0.096649|
|         796|  1.0736e+00|   -6.906045|   -2.600886|   -2.780568|    0.096451|
|         797|  1.0727e+00|   -6.906143|   -2.600882|   -2.780552|    0.096354|
|         798|  1.0717e+00|   -6.906235|   -2.600879|   -2.780538|    0.096265|
|         799|  1.0708e+00|   -6.906324|   -2.600875|   -2.780525|    0.096179|
|         800|  1.0699e+00|   -6.906415|   -2.600872|   -2.780512|    0.096097|
|         801|  1.0690e+00|   -6.906503|   -2.600870|   -2.780499|    0.096017|
|         802|  1.0680e+00|   -6.906591|   -2.600867|   -2.780487|    0.095936|
|         803|  1.0671e+00|   -6.906683|   -2.600865|   -2.780475|    0.095853|
|         804|  1.0662e+00|   -6.906778|   -2.600862|   -2.780463|    0.095768|
|         805|  1.0653e+00|   -6.906879|   -2.600860|   -2.780451|    0.095682|
|         806|  1.0644e+00|   -6.906988|   -2.600859|   -2.780440|    0.095595|
|         807|  1.0635e+00|   -6.907112|   -2.600857|   -2.780429|    0.095510|
|         808|  1.0626e+00|   -6.907216|   -2.600856|   -2.780418|    0.095425|
|         809|  1.0617e+00|   -6.907304|   -2.600854|   -2.780408|    0.095344|
|         810|  1.0608e+00|   -6.907376|   -2.600853|   -2.780398|    0.095281|
|         811|  1.0599e+00|   -6.907386|   -2.600852|   -2.780389|    0.095272|
|         812|  1.0590e+00|   -6.907465|   -2.600852|   -2.780381|    0.095172|
|         813|  1.0581e+00|   -6.907568|   -2.600851|   -2.780373|    0.095061|
|         814|  1.0572e+00|   -6.907641|   -2.600851|   -2.780367|    0.094991|
|         815|  1.0563e+00|   -6.907658|   -2.600850|   -2.780362|    0.094988|
|         816|  1.0554e+00|   -6.907590|   -2.600850|   -2.780357|    0.095055|
|         817|  1.0545e+00|   -6.907524|   -2.600850|   -2.780354|    0.095117|
|         818|  1.0536e+00|   -6.907590|   -2.600851|   -2.780351|    0.095043|
|         819|  1.0528e+00|   -6.907684|   -2.600851|   -2.780349|    0.094949|
|         820|  1.0519e+00|   -6.907762|   -2.600851|   -2.780347|    0.094873|
[...]
|        2272|  1.2026e+00|   -6.953987|   -3.275011|   -3.320975|    0.033493|
|        2273|  1.2024e+00|   -7.035288|   -3.277767|   -3.322187|   -0.057136|
|        2274|  1.2021e+00|   -7.169043|   -3.281657|   -3.323872|   -0.219785|
|        2275|  1.2018e+00|   -7.265348|   -3.282403|   -3.324461|   -0.356701|
|        2276|  1.2014e+00|   -7.308924|   -3.282751|   -3.324350|   -0.427941|
|        2277|  1.2011e+00|   -7.359212|   -3.282907|   -3.324132|   -0.531090|
|        2278|  1.2007e+00|   -7.398179|   -3.283120|   -3.324149|   -0.628106|
|        2279|  1.2004e+00|   -7.400142|   -3.282893|   -3.324037|   -0.637017|
|        2280|  1.2000e+00|   -7.410244|   -3.283028|   -3.324067|   -0.666325|
|        2281|  1.1996e+00|   -7.412594|   -3.283004|   -3.324015|   -0.674493|
|        2282|  1.1993e+00|   -7.414527|   -3.283000|   -3.323982|   -0.680737|
|        2283|  1.1989e+00|   -7.415379|   -3.282966|   -3.323938|   -0.683908|
|        2284|  1.1985e+00|   -7.416240|   -3.282944|   -3.323904|   -0.686956|
|        2285|  1.1982e+00|   -7.416895|   -3.282915|   -3.323869|   -0.689426|
|        2286|  1.1978e+00|   -7.417585|   -3.282884|   -3.323831|   -0.692025|
|        2287|  1.1975e+00|   -7.418225|   -3.282842|   -3.323791|   -0.694592|
|        2288|  1.1971e+00|   -7.418585|   -3.282796|   -3.323755|   -0.695568|
|        2289|  1.1967e+00|   -7.418111|   -3.282743|   -3.323715|   -0.693002|
|        2290|  1.1964e+00|   -7.416815|   -3.282724|   -3.323681|   -0.688590|
|        2291|  1.1961e+00|   -7.414931|   -3.282704|   -3.323610|   -0.681188|
|        2292|  1.1957e+00|   -7.412684|   -3.282812|   -3.323577|   -0.670601|
|        2293|  1.1954e+00|   -7.406801|   -3.282852|   -3.323480|   -0.650095|
|        2294|  1.1951e+00|   -7.398911|   -3.283215|   -3.323586|   -0.627925|
|        2295|  1.1948e+00|   -7.400551|   -3.283602|   -3.323602|   -0.630510|
|        2296|  1.1945e+00|   -7.393075|   -3.284420|   -3.323637|   -0.608754|
|        2297|  1.1942e+00|   -7.380244|   -3.285171|   -3.323770|   -0.575495|
|        2298|  1.1940e+00|   -7.352131|   -3.286184|   -3.323866|   -0.512166|
|        2299|  1.1938e+00|   -7.338787|   -3.287076|   -3.323765|   -0.484461|
|        2300|  1.1935e+00|   -7.309410|   -3.288008|   -3.323744|   -0.427902|
|        2301|  1.1934e+00|   -7.252417|   -3.288133|   -3.322026|   -0.335826|
|        2302|  1.1932e+00|   -7.170200|   -3.286815|   -3.318666|   -0.219028|
|        2303|  1.1931e+00|   -7.142637|   -3.287668|   -3.320238|   -0.185644|
|        2304|  1.1930e+00|   -7.085504|   -3.287009|   -3.318023|   -0.113948|
|        2305|  1.1929e+00|   -7.021995|   -3.284843|   -3.314086|   -0.041046|
|        2306|  1.1929e+00|   -6.970741|   -3.279886|   -3.315588|    0.015888|
|        2307|  1.1930e+00|   -6.853648|   -3.270609|   -3.303618|    0.142509|
|        2308|  1.1930e+00|   -6.808326|   -3.267183|   -3.308814|    0.189973|
|        2309|  1.1932e+00|   -6.779389|   -3.257250|   -3.307826|    0.218916|
|        2310|  1.1934e+00|   -6.765400|   -3.250946|   -3.306102|    0.233396|
|        2311|  1.1938e+00|   -6.753437|   -3.238774|   -3.304893|    0.244284|
|        2312|  1.1942e+00|   -6.717174|   -3.243538|   -3.300415|    0.280739|
|        2313|  1.1947e+00|   -6.643461|   -3.214725|   -3.298099|    0.356064|
|        2314|  1.1949e+00|   -6.606223|   -3.200230|   -3.289048|    0.392406|
|        2315|  1.1950e+00|   -6.730928|   -3.242464|   -3.288363|    0.269216|
|        2316|  1.1951e+00|   -6.784815|   -3.252703|   -3.294390|    0.214832|
|        2317|  1.1954e+00|   -6.762501|   -3.253597|   -3.293824|    0.236921|
|        2318|  1.1957e+00|   -6.722957|   -3.244175|   -3.287871|    0.276714|
|        2319|  1.1961e+00|   -6.718298|   -3.235683|   -3.290898|    0.280320|
|        2320|  1.1965e+00|   -6.670002|   -3.224416|   -3.283932|    0.329639|
|        2321|  1.1968e+00|   -6.650255|   -3.211893|   -3.284998|    0.349179|
|        2322|  1.1968e+00|   -6.707347|   -3.238366|   -3.272775|    0.295116|
|        2323|  1.1968e+00|   -6.737831|   -3.250561|   -3.274137|    0.265279|
|        2324|  1.1968e+00|   -6.864480|   -3.263594|   -3.293294|    0.131155|
|        2325|  1.1968e+00|   -6.901103|   -3.269017|   -3.298619|    0.092738|
|        2326|  1.1969e+00|   -6.856303|   -3.272303|   -3.296256|    0.140828|
|        2327|  1.1971e+00|   -6.827887|   -3.267310|   -3.297311|    0.170390|
|        2328|  1.1973e+00|   -6.771986|   -3.264233|   -3.289181|    0.229064|
|        2329|  1.1976e+00|   -6.742403|   -3.257747|   -3.289734|    0.258876|
|        2330|  1.1980e+00|   -6.727940|   -3.247285|   -3.295759|    0.273096|
|        2331|  1.1986e+00|   -6.699104|   -3.239645|   -3.292568|    0.302308|
|        2332|  1.1992e+00|   -6.679042|   -3.234241|   -3.300571|    0.321236|
|        2333|  1.1999e+00|   -6.628759|   -3.212967|   -3.299584|    0.371430|
|        2334|  1.2006e+00|   -6.573539|   -3.195728|   -3.279690|    0.427793|
|        2335|  1.2013e+00|   -6.596200|   -3.211683|   -3.294776|    0.405000|
|        2336|  1.2020e+00|   -6.616406|   -3.224536|   -3.309771|    0.383812|
|        2337|  1.2027e+00|   -6.610868|   -3.219934|   -3.305755|    0.390150|
|        2338|  1.2034e+00|   -6.608550|   -3.229305|   -3.304243|    0.392687|
|        2339|  1.2040e+00|   -6.637975|   -3.232876|   -3.329328|    0.362338|
|        2340|  1.2047e+00|   -6.623626|   -3.232929|   -3.317746|    0.376913|
|        2341|  1.2054e+00|   -6.642877|   -3.243496|   -3.339689|    0.357997|
|        2342|  1.2061e+00|   -6.614510|   -3.238733|   -3.320783|    0.387509|
|        2343|  1.2068e+00|   -6.656243|   -3.239668|   -3.342445|    0.344612|
|        2344|  1.2076e+00|   -6.624792|   -3.256365|   -3.334437|    0.376817|
|        2345|  1.2082e+00|   -6.651591|   -3.265436|   -3.351399|    0.348895|
|        2346|  1.2088e+00|   -6.665306|   -3.266761|   -3.362845|    0.335748|
|        2347|  1.2095e+00|   -6.673202|   -3.266240|   -3.364826|    0.327276|
|        2348|  1.2102e+00|   -6.669385|   -3.269858|   -3.360858|    0.331425|
|        2349|  1.2109e+00|   -6.666729|   -3.271946|   -3.362362|    0.334690|
|        2350|  1.2116e+00|   -6.646619|   -3.269519|   -3.356199|    0.355021|
|        2351|  1.2122e+00|   -6.621972|   -3.264223|   -3.346742|    0.380561|
|        2352|  1.2130e+00|   -6.627648|   -3.260346|   -3.346471|    0.374497|
|        2353|  1.2136e+00|   -6.638501|   -3.260911|   -3.353218|    0.362077|
|        2354|  1.2143e+00|   -6.636227|   -3.248856|   -3.348892|    0.364029|
|        2355|  1.2149e+00|   -6.621836|   -3.242586|   -3.340422|    0.378573|
|        2356|  1.2156e+00|   -6.602986|   -3.224427|   -3.324162|    0.398434|
|        2357|  1.2162e+00|   -6.613699|   -3.227299|   -3.326924|    0.386931|
|        2358|  1.2169e+00|   -6.581960|   -3.220701|   -3.304885|    0.420098|
|        2359|  1.2172e+00|   -6.613136|   -3.210348|   -3.316893|    0.386843|
|        2360|  1.2173e+00|   -6.706084|   -3.262966|   -3.303118|    0.294981|
|        2361|  1.2173e+00|   -6.738425|   -3.266382|   -3.301240|    0.263872|
|        2362|  1.2172e+00|   -6.834950|   -3.281984|   -3.304158|    0.164383|
|        2363|  1.2170e+00|   -6.945129|   -3.293416|   -3.305838|    0.049062|
|        2364|  1.2168e+00|   -7.040758|   -3.300552|   -3.307938|   -0.057497|
|        2365|  1.2165e+00|   -7.223370|   -3.304894|   -3.313335|   -0.281250|
|        2366|  1.2163e+00|   -7.165241|   -3.305465|   -3.315274|   -0.208187|
|        2367|  1.2160e+00|   -7.150091|   -3.306839|   -3.316545|   -0.184318|
|        2368|  1.2158e+00|   -7.240322|   -3.307138|   -3.317727|   -0.306074|
|        2369|  1.2156e+00|   -7.203449|   -3.306182|   -3.316846|   -0.255057|
|        2370|  1.2154e+00|   -7.207873|   -3.307274|   -3.315875|   -0.259161|
|        2371|  1.2152e+00|   -7.159929|   -3.307560|   -3.319141|   -0.197618|
|        2372|  1.2151e+00|   -7.115072|   -3.306596|   -3.320144|   -0.143143|
|        2373|  1.2149e+00|   -7.042376|   -3.302003|   -3.315449|   -0.058301|
|        2374|  1.2146e+00|   -7.159908|   -3.302914|   -3.317903|   -0.199464|
|        2375|  1.2143e+00|   -7.218241|   -3.301238|   -3.318599|   -0.273677|
|        2376|  1.2140e+00|   -7.303905|   -3.300730|   -3.318534|   -0.403255|
|        2377|  1.2136e+00|   -7.350562|   -3.300390|   -3.318084|   -0.485035|
|        2378|  1.2133e+00|   -7.390660|   -3.300410|   -3.318464|   -0.579797|
|        2379|  1.2129e+00|   -7.415820|   -3.300508|   -3.318620|   -0.643814|
|        2380|  1.2126e+00|   -7.422012|   -3.300497|   -3.318652|   -0.660264|
|        2381|  1.2122e+00|   -7.428536|   -3.300523|   -3.318835|   -0.681505|
|        2382|  1.2118e+00|   -7.430350|   -3.300564|   -3.318921|   -0.688012|
|        2383|  1.2115e+00|   -7.434477|   -3.300560|   -3.318992|   -0.698898|
|        2384|  1.2111e+00|   -7.435989|   -3.300611|   -3.319122|   -0.705473|
|        2385|  1.2108e+00|   -7.435482|   -3.300593|   -3.319159|   -0.700436|
|        2386|  1.2104e+00|   -7.437110|   -3.300669|   -3.319300|   -0.709148|
|        2387|  1.2101e+00|   -7.437777|   -3.300647|   -3.319334|   -0.707189|
|        2388|  1.2097e+00|   -7.439816|   -3.300715|   -3.319448|   -0.716518|
|        2389|  1.2094e+00|   -7.439811|   -3.300715|   -3.319493|   -0.713565|
|        2390|  1.2090e+00|   -7.439853|   -3.300786|   -3.319597|   -0.716263|
|        2391|  1.2087e+00|   -7.439055|   -3.300780|   -3.319619|   -0.710452|
|        2392|  1.2083e+00|   -7.437331|   -3.300859|   -3.319683|   -0.706782|
|        2393|  1.2080e+00|   -7.440096|   -3.300855|   -3.319736|   -0.713156|
|        2394|  1.2076e+00|   -7.441192|   -3.300919|   -3.319824|   -0.718205|
|        2395|  1.2073e+00|   -7.442400|   -3.300931|   -3.319878|   -0.718782|
|        2396|  1.2069e+00|   -7.441950|   -3.300983|   -3.319959|   -0.718060|
|        2397|  1.2066e+00|   -7.442142|   -3.300992|   -3.320006|   -0.717461|
|        2398|  1.2062e+00|   -7.442000|   -3.301038|   -3.320076|   -0.717801|
|        2399|  1.2059e+00|   -7.442903|   -3.301056|   -3.320112|   -0.719901|
|        2400|  1.2055e+00|   -7.442798|   -3.301099|   -3.320177|   -0.719872|
|        2401|  1.2052e+00|   -7.443529|   -3.301118|   -3.320214|   -0.721385|
|        2402|  1.2048e+00|   -7.443487|   -3.301159|   -3.320281|   -0.721977|
|        2403|  1.2045e+00|   -7.444272|   -3.301190|   -3.320324|   -0.723988|
|        2404|  1.2041e+00|   -7.444208|   -3.301258|   -3.320427|   -0.723840|
|        2405|  1.2038e+00|   -7.444629|   -3.301312|   -3.320477|   -0.724431|
|        2406|  1.2035e+00|   -7.442703|   -3.301432|   -3.320586|   -0.717558|
|        2407|  1.2031e+00|   -7.439781|   -3.301457|   -3.320572|   -0.703627|
|        2408|  1.2028e+00|   -7.433667|   -3.301584|   -3.320576|   -0.683626|
|        2409|  1.2025e+00|   -7.438435|   -3.301636|   -3.320516|   -0.694426|
|        2410|  1.2022e+00|   -7.436022|   -3.301792|   -3.320533|   -0.685237|
|        2411|  1.2019e+00|   -7.435804|   -3.301964|   -3.320497|   -0.679892|
|        2412|  1.2016e+00|   -7.427332|   -3.302218|   -3.320407|   -0.651688|
|        2413|  1.2013e+00|   -7.413155|   -3.302138|   -3.320261|   -0.610606|
|        2414|  1.2011e+00|   -7.404490|   -3.301860|   -3.319532|   -0.585801|
|        2415|  1.2008e+00|   -7.371149|   -3.300969|   -3.318947|   -0.516200|
|        2416|  1.2006e+00|   -7.266225|   -3.301802|   -3.316464|   -0.340390|
|        2417|  1.2004e+00|   -7.276790|   -3.302830|   -3.315308|   -0.355463|
|        2418|  1.2002e+00|   -7.234383|   -3.303443|   -3.316658|   -0.294268|
|        2419|  1.2000e+00|   -7.229308|   -3.303865|   -3.321225|   -0.286711|
|        2420|  1.1999e+00|   -7.099984|   -3.303225|   -3.319226|   -0.124683|
|        2421|  1.1998e+00|   -7.049279|   -3.300593|   -3.315310|   -0.065057|
|        2422|  1.1997e+00|   -6.995425|   -3.297204|   -3.307412|   -0.004794|
|        2423|  1.1997e+00|   -6.949281|   -3.294948|   -3.304120|    0.045232|
|        2424|  1.1998e+00|   -6.912326|   -3.292109|   -3.304495|    0.084121|
|        2425|  1.1997e+00|   -6.898435|   -3.289069|   -3.302284|    0.098224|
|        2426|  1.1995e+00|   -6.951545|   -3.289351|   -3.301225|    0.042921|
|        2427|  1.1992e+00|   -7.021997|   -3.290145|   -3.297862|   -0.033924|
|        2428|  1.1990e+00|   -7.121295|   -3.294446|   -3.297811|   -0.144345|
|        2429|  1.1987e+00|   -7.264700|   -3.293648|   -3.296161|   -0.332340|
|        2430|  1.1985e+00|   -7.277324|   -3.292538|   -3.293660|   -0.351929|
|        2431|  1.1983e+00|   -7.207085|   -3.290542|   -3.290849|   -0.257090|
|        2432|  1.1981e+00|   -7.186397|   -3.291149|   -3.289085|   -0.227423|
|        2433|  1.1980e+00|   -7.136212|   -3.294738|   -3.290785|   -0.164473|
|        2434|  1.1978e+00|   -7.051461|   -3.295712|   -3.289422|   -0.065117|
|        2435|  1.1977e+00|   -7.045221|   -3.294175|   -3.288889|   -0.058855|
|        2436|  1.1976e+00|   -6.989416|   -3.293254|   -3.289363|    0.003564|
|        2437|  1.1976e+00|   -6.908717|   -3.289654|   -3.287227|    0.088607|
|        2438|  1.1976e+00|   -6.885933|   -3.286378|   -3.286756|    0.112508|
|        2439|  1.1976e+00|   -6.825751|   -3.279279|   -3.273956|    0.177381|
|        2440|  1.1976e+00|   -6.833790|   -3.273251|   -3.280706|    0.167794|
|        2441|  1.1974e+00|   -6.863496|   -3.276687|   -3.280283|    0.136146|
|        2442|  1.1972e+00|   -6.966065|   -3.285192|   -3.281236|    0.027022|
|        2443|  1.1970e+00|   -7.153227|   -3.291671|   -3.282383|   -0.184580|
|        2444|  1.1968e+00|   -7.153973|   -3.289773|   -3.285816|   -0.186094|
|        2445|  1.1967e+00|   -7.033264|   -3.287881|   -3.282004|   -0.044208|
|        2446|  1.1965e+00|   -7.034489|   -3.289877|   -3.281409|   -0.045590|
|        2447|  1.1965e+00|   -6.969639|   -3.287704|   -3.279927|    0.023255|
|        2448|  1.1964e+00|   -6.933582|   -3.285535|   -3.281502|    0.061524|
|        2449|  1.1963e+00|   -6.942559|   -3.283224|   -3.280547|    0.051348|
|        2450|  1.1961e+00|   -6.981020|   -3.284432|   -3.281806|    0.010290|
|        2451|  1.1959e+00|   -7.134532|   -3.284886|   -3.281482|   -0.164057|
|        2452|  1.1957e+00|   -7.075241|   -3.284207|   -3.282449|   -0.094035|
|        2453|  1.1956e+00|   -7.054768|   -3.285740|   -3.278762|   -0.069601|
|        2454|  1.1955e+00|   -7.015049|   -3.283021|   -3.279984|   -0.027373|
|        2455|  1.1954e+00|   -6.993346|   -3.284339|   -3.281512|   -0.004553|
|        2456|  1.1954e+00|   -6.916196|   -3.282694|   -3.274854|    0.079678|
|        2457|  1.1955e+00|   -6.894978|   -3.274672|   -3.270874|    0.101499|
|        2458|  1.1955e+00|   -6.809486|   -3.263231|   -3.262013|    0.191731|
|        2459|  1.1955e+00|   -6.840697|   -3.260430|   -3.265953|    0.159229|
|        2460|  1.1953e+00|   -6.910760|   -3.269901|   -3.260065|    0.084473|
|        2461|  1.1951e+00|   -6.958651|   -3.276150|   -3.255887|    0.035167|
|        2462|  1.1949e+00|   -7.147149|   -3.278757|   -3.257352|   -0.176728|
|        2463|  1.1946e+00|   -7.275250|   -3.280111|   -3.257610|   -0.345200|
|        2464|  1.1944e+00|   -7.223850|   -3.280730|   -3.257581|   -0.273151|
|        2465|  1.1942e+00|   -7.189571|   -3.282098|   -3.258712|   -0.229962|
|        2466|  1.1939e+00|   -7.245234|   -3.284531|   -3.259097|   -0.305114|
|        2467|  1.1936e+00|   -7.313035|   -3.285049|   -3.259384|   -0.400391|
|        2468|  1.1933e+00|   -7.377295|   -3.285647|   -3.259211|   -0.504184|
|        2469|  1.1929e+00|   -7.427813|   -3.285782|   -3.259234|   -0.618554|
|        2470|  1.1926e+00|   -7.447205|   -3.285886|   -3.259078|   -0.667360|
|        2471|  1.1923e+00|   -7.452138|   -3.285753|   -3.259080|   -0.688160|
|        2472|  1.1920e+00|   -7.456515|   -3.285714|   -3.258891|   -0.696776|
|        2473|  1.1917e+00|   -7.453816|   -3.285509|   -3.258809|   -0.694261|
|        2474|  1.1914e+00|   -7.452012|   -3.285482|   -3.258481|   -0.680983|
|        2475|  1.1911e+00|   -7.448943|   -3.285288|   -3.258451|   -0.679791|
|        2476|  1.1908e+00|   -7.444214|   -3.285331|   -3.258191|   -0.656794|
|        2477|  1.1905e+00|   -7.430529|   -3.285344|   -3.258356|   -0.627653|
|        2478|  1.1902e+00|   -7.437137|   -3.285659|   -3.258428|   -0.635664|
|        2479|  1.1898e+00|   -7.457651|   -3.285685|   -3.258623|   -0.699283|
|        2480|  1.1895e+00|   -7.464291|   -3.285772|   -3.258749|   -0.721787|
|        2481|  1.1892e+00|   -7.466163|   -3.285804|   -3.258821|   -0.729106|
|        2482|  1.1888e+00|   -7.467881|   -3.285838|   -3.258875|   -0.734240|
|        2483|  1.1885e+00|   -7.468788|   -3.285869|   -3.258936|   -0.737386|
|        2484|  1.1882e+00|   -7.469705|   -3.285900|   -3.259010|   -0.740436|
|        2485|  1.1878e+00|   -7.470111|   -3.285932|   -3.259085|   -0.742300|
|        2486|  1.1875e+00|   -7.470523|   -3.285966|   -3.259157|   -0.743450|
|        2487|  1.1872e+00|   -7.470729|   -3.286002|   -3.259226|   -0.744550|
|        2488|  1.1869e+00|   -7.471103|   -3.286039|   -3.259291|   -0.745474|
|        2489|  1.1865e+00|   -7.471246|   -3.286078|   -3.259357|   -0.746403|
|        2490|  1.1862e+00|   -7.471505|   -3.286120|   -3.259418|   -0.746914|
|        2491|  1.1859e+00|   -7.471420|   -3.286164|   -3.259481|   -0.747253|
|        2492|  1.1856e+00|   -7.469289|   -3.286214|   -3.259538|   -0.739728|
|        2493|  1.1852e+00|   -7.469252|   -3.286249|   -3.259605|   -0.740937|
|        2494|  1.1849e+00|   -7.469998|   -3.286290|   -3.259653|   -0.742303|
|        2495|  1.1846e+00|   -7.471892|   -3.286329|   -3.259694|   -0.747063|
|        2496|  1.1842e+00|   -7.471583|   -3.286374|   -3.259717|   -0.743521|
|        2497|  1.1839e+00|   -7.470736|   -3.286410|   -3.259769|   -0.740321|
|        2498|  1.1836e+00|   -7.470341|   -3.286458|   -3.259802|   -0.737721|
|        2499|  1.1833e+00|   -7.469832|   -3.286495|   -3.259859|   -0.736288|

----------------------------- Solver Exit -------------------------------

Maximum number of iterations reached (ITER = 2500) before convergence.
+-----------------------------------------------------------------------+
|      Convergence Field     |     Value    |   Criterion  |  Converged |
+-----------------------------------------------------------------------+
|                    rms[Rho]|      -7.46983|          < -8|          No|
+-----------------------------------------------------------------------+
-------------------------------------------------------------------------
+-----------------------------------------------------------------------+
|        File Writing Summary       |              Filename             |
+-----------------------------------------------------------------------+
|SU2 binary restart                 |restart_flow.dat                   |
|Paraview                           |flow.vtu                           |
|CSV file                           |surface_flow.csv                   |
+-----------------------------------------------------------------------+

--------------------------- Finalizing Solver ---------------------------
Deleted CNumerics container.
Deleted CIntegration container.
Deleted CSolver container.
Deleted CIteration container.
Deleted CInterface container.
Deleted CGeometry container.
Deleted CFreeFormDefBox class.
Deleted CSurfaceMovement class.
Deleted CVolumetricMovement class.
Deleted CConfig container.
Deleted nInst container.
Deleted COutput class.
-------------------------------------------------------------------------

------------------------- Exit Success (SU2_CFD) ------------------------


Total elapsed: 0:49:20
