
-------------------------------------------------------------------------
|    ___ _   _ ___                                                      |
|   / __| | | |_  )   Release 8.3.0 "Harrier"                           |
|   \__ \ |_| |/ /                                                      |
|   |___/\___//___|   Suite (Computational Fluid Dynamics Code)         |
|                                                                       |
-------------------------------------------------------------------------
| SU2 Project Website: https://su2code.github.io                        |
|                                                                       |
| The SU2 Project is maintained by the SU2 Foundation                   |
| (http://su2foundation.org)                                            |
-------------------------------------------------------------------------
| Copyright 2012-2025, SU2 Contributors                                 |
|                                                                       |
| SU2 is free software; you can redistribute it and/or                  |
| modify it under the terms of the GNU Lesser General Public            |
| License as published by the Free Software Foundation; either          |
| version 2.1 of the License, or (at your option) any later version.    |
|                                                                       |
| SU2 is distributed in the hope that it will be useful,                |
| but WITHOUT ANY WARRANTY; without even the implied warranty of        |
| MERCHANTABILITY or FITNESS FOR A PARTICULAR PURPOSE. See the GNU      |
| Lesser General Public License for more details.                       |
|                                                                       |
| You should have received a copy of the GNU Lesser General Public      |
| License along with SU2. If not, see <http://www.gnu.org/licenses/>.   |
-------------------------------------------------------------------------

Parsing config file for zone 0

----------------- Physical Case Definition ( Zone 0 ) -------------------
Compressible Laminar Navier-Stokes' equations.
Mach number: 0.3.
Angle of attack (AoA): 0 deg, and angle of sideslip (AoS): 0 deg.
Reynolds number: 89810. Reference length 0.166667.
No restart solution, use the values at infinity (freestream).
Dimensional simulation.
The reference area is 0.0833333 ft^2.
The semi-span will be computed using the max y(3D) value.
The reference length is 0.166667 ft.
Input mesh file name: swirler_n6_c2_AoA10_NACA8412.su2

--------------- Space Numerical Integration ( Zone 0 ) ------------------
Roe (with entropy fix = 0.1) solver for the flow inviscid terms.
Standard Roe without low-dissipation function.
Second order integration in space, with slope limiter.
Venkatakrishnan slope-limiting method, with constant: 0.02.
The reference element size is: 3.28084. 
Average of gradients with correction (viscous flow terms).
Gradient for upwind reconstruction: inverse-distance weighted Least-Squares.
Gradient for viscous and source terms: inverse-distance weighted Least-Squares.

--------------- Time Numerical Integration  ( Zone 0 ) ------------------
Local time stepping (steady state simulation).
Euler implicit method for the flow equations.
FGMRES is used for solving the linear system.
Using a ILU(0) preconditioning.
Convergence criteria of the linear solver: 1e-06.
Max number of linear iterations: 120.
CFL adaptation. Factor down: 0.5, factor up: 1.05,
                lower limit: 0.01, upper limit: 3,
                acceptable linear residual: 0.001'
                starting iteration: 0.
Courant-Friedrichs-Lewy number:      0.5

------------------ Convergence Criteria  ( Zone 0 ) ---------------------
Maximum number of solver subiterations: 3000.
Begin convergence monitoring at iteration 50.
Residual minimum value: 1e-8.
Cauchy series min. value: 1e-06.
Number of Cauchy elements: 100.
Begin windowed time average at iteration 0.

-------------------- Output Information ( Zone 0 ) ----------------------
File writing frequency: 
+------------------------------------+
|                     File| Frequency|
+------------------------------------+
|                  RESTART|       250|
|                 PARAVIEW|       250|
|              SURFACE_CSV|       250|
+------------------------------------+
Writing the convergence history file every 1 inner iterations.
Writing the screen convergence history every 1 inner iterations.
The tabular file format is CSV (.csv).
Convergence history file name: history.
Forces breakdown file name: forces_breakdown.dat.
Surface file name: surface_flow.
Volume file name: flow.
Restart file name: restart_flow.

------------- Config File Boundary Information ( Zone 0 ) ---------------
+-----------------------------------------------------------------------+
|                        Marker Type|                        Marker Name|
+-----------------------------------------------------------------------+
|                  Periodic boundary|                          Symmetry2|
|                                   |                          Symmetry1|
+-----------------------------------------------------------------------+
|                     Inlet boundary|                              Inlet|
+-----------------------------------------------------------------------+
|                    Outlet boundary|                             Outlet|
+-----------------------------------------------------------------------+
|                     Heat flux wall|                           Airfoils|
+-----------------------------------------------------------------------+

-------------------- Output Preprocessing ( Zone 0 ) --------------------

WARNING: SURFACE_PRESSURE_DROP can only be computed for at least 2 surfaces (outlet, inlet, ...)

Screen output fields: INNER_ITER, WALL_TIME, RMS_DENSITY, RMS_MOMENTUM-X, RMS_MOMENTUM-Y, RMS_ENERGY
History output group(s): ITER, RMS_RES
Convergence field(s): RMS_DENSITY
Warning: No (valid) fields chosen for time convergence monitoring. Time convergence monitoring inactive.
Volume output fields: COORDINATES, SOLUTION, PRIMITIVE

------------------- Geometry Preprocessing ( Zone 0 ) -------------------
Two dimensional problem.
118454 grid points.
235164 volume elements.
5 surface markers.
1188 boundary elements in index 0 (Marker = Airfoils).
63 boundary elements in index 1 (Marker = Inlet).
220 boundary elements in index 2 (Marker = Symmetry1).
220 boundary elements in index 3 (Marker = Symmetry2).
63 boundary elements in index 4 (Marker = Outlet).
235164 triangles.
Setting point connectivity.
Renumbering points (Reverse Cuthill McKee Ordering).
Recomputing point connectivity.
Setting element connectivity.
Checking the numerical grid orientation.
All volume elements are correctly oriented.
All surface elements are correctly oriented.
Identifying edges and vertices.
Setting the control volume structure.
Area of the computational grid: 0.95648.
Searching for the closest normal neighbors to the surfaces.
Storing a mapping from global to local point index.
Compute the surface curvature.
Max K: 90341.5. Mean K: 342.579. Standard deviation K: 5268.16.
Checking for periodicity.
Computing mesh quality statistics for the dual control volumes.
+--------------------------------------------------------------+
|           Mesh Quality Metric|        Minimum|        Maximum|
+--------------------------------------------------------------+
|    Orthogonality Angle (deg.)|        73.5946|        89.5571|
|     CV Face Area Aspect Ratio|        1.00005|        12.6932|
|           CV Sub-Volume Ratio|              1|        10.8599|
+--------------------------------------------------------------+
Finding max control volume width.
Wetted area = 0 ft.
Area projection in the x-plane = 0 ft, y-plane = 0 ft.
Max. coordinate in the x-direction = -1e+10 ft, y-direction = -1e+10 ft.
Min. coordinate in the x-direction = 1e+10 ft, y-direction = 1e+10 ft.
Matching the periodic boundary points for marker pair 1.
 Matched 442 points with a max distance of: 0.
Computing wall distances.

-------------------- Solver Preprocessing ( Zone 0 ) --------------------
Viscous flow: Computing pressure using the ideal gas law
based on the free-stream temperature and a density computed
from the Reynolds number.
Force coefficients computed using free-stream values.

-- Models:
+------------------------------------------------------------------------------+
|          Viscosity Model|        Conductivity Model|              Fluid Model|
+------------------------------------------------------------------------------+
|               SUTHERLAND|          CONSTANT_PRANDTL|             STANDARD_AIR|
+------------------------------------------------------------------------------+
-- Fluid properties:
+------------------------------------------------------------------------------+
|                  Name|    Dim. value|    Ref. value|      Unit|Non-dim. value|
+------------------------------------------------------------------------------+
|        Ref. Viscosity|     3.737e-07|             1|lbf.s/ft^2|     3.737e-07|
|      Sutherland Temp.|        518.67|             1|         R|        518.67|
|     Sutherland Const.|        198.72|             1|         R|        198.72|
+------------------------------------------------------------------------------+
|        Prandtl (Lam.)|             -|             -|         -|          0.72|
|       Prandtl (Turb.)|             -|             -|         -|           0.9|
+------------------------------------------------------------------------------+
|          Gas Constant|       1716.49|             1|lbf.ft/slug.R|       1716.49|
|      Spec. Heat Ratio|             -|             -|         -|           1.4|
+------------------------------------------------------------------------------+
-- Initial and free-stream conditions:
+------------------------------------------------------------------------------+
|                  Name|    Dim. value|    Ref. value|      Unit|Non-dim. value|
+------------------------------------------------------------------------------+
|       Static Pressure|       2116.19|             1|       psf|       2116.19|
|               Density|   0.000742687|             1| slug/ft^3|   0.000742687|
|           Temperature|          1660|             1|         R|          1660|
|          Total Energy|   7.30294e+06|             1|  ft^2/s^2|   7.30294e+06|
|            Velocity-X|       599.184|             1|      ft/s|       599.184|
|            Velocity-Y|             0|             1|      ft/s|             0|
|    Velocity Magnitude|       599.184|             1|      ft/s|       599.184|
+------------------------------------------------------------------------------+
|             Viscosity|   8.25829e-07|             1|lbf.s/ft^2|   8.25829e-07|
|          Conductivity|             -|             1|lbf/ft.s.R|             -|
+------------------------------------------------------------------------------+
|           Mach Number|             -|             -|         -|           0.3|
|       Reynolds Number|             -|             -|         -|         89810|
+------------------------------------------------------------------------------+
Initialize Jacobian structure (Navier-Stokes). MG level: 0.

------------------- Numerics Preprocessing ( Zone 0 ) -------------------

----------------- Integration Preprocessing ( Zone 0 ) ------------------

------------------- Iteration Preprocessing ( Zone 0 ) ------------------
Euler/Navier-Stokes/RANS fluid iteration.

------------------------------ Begin Solver -----------------------------

Simulation Run using the Single-zone Driver
WARNING: SU2 was not compiled for an AVX-capable architecture. Performance could be better,
         see https://su2code.github.io/docs_v7/Build-SU2-Linux-MacOS/#compiler-optimizations
+-----------------------------------------------------------------------------+
|  Inner_Iter|   Time(sec)|    rms[Rho]|   rms[RhoU]|   rms[RhoV]|   rms[RhoE]|
+-----------------------------------------------------------------------------+
|           0|  7.1500e-01|   -4.943351|   -2.532598|    0.181346|    2.064321|
|           1|  6.1500e-01|   -4.586600|   -1.620199|    0.159022|    2.414756|
|           2|  5.8167e-01|   -4.282759|   -1.374848|    0.129543|    2.709056|
|           3|  5.6175e-01|   -4.101484|   -1.179823|    0.094881|    2.878113|
|           4|  5.5820e-01|   -4.014868|   -1.077499|    0.058147|    2.952064|
|           5|  5.5933e-01|   -3.969667|   -1.029904|    0.022374|    2.982935|
|           6|  5.5743e-01|   -3.937298|   -0.996437|   -0.009584|    3.003257|
|           7|  5.5988e-01|   -3.934674|   -0.994699|   -0.039376|    2.995464|
|           8|  5.5844e-01|   -3.927341|   -0.988519|   -0.064426|    2.992804|
|           9|  5.5990e-01|   -3.917580|   -0.982137|   -0.086723|    2.991738|
|          10|  5.5800e-01|   -3.913238|   -0.979941|   -0.104332|    2.989261|
|          11|  5.5692e-01|   -3.899364|   -0.973892|   -0.119734|    2.996983|
|          12|  5.5969e-01|   -3.888507|   -0.970132|   -0.131265|    3.003943|
|          13|  5.6214e-01|   -3.880303|   -0.970680|   -0.140466|    3.010583|
|          14|  5.6527e-01|   -3.870805|   -0.968416|   -0.146422|    3.019533|
|          15|  5.6681e-01|   -3.865500|   -0.964678|   -0.149279|    3.026464|
|          16|  5.6724e-01|   -3.863503|   -0.965658|   -0.149891|    3.031377|
|          17|  5.7089e-01|   -3.858378|   -0.960322|   -0.146397|    3.039020|
|          18|  5.7374e-01|   -3.851839|   -0.953482|   -0.140788|    3.047832|
|          19|  5.7635e-01|   -3.843186|   -0.941753|   -0.131838|    3.059206|
|          20|  5.7876e-01|   -3.832768|   -0.930689|   -0.122678|    3.070214|
|          21|  5.8105e-01|   -3.824403|   -0.914716|   -0.112153|    3.079549|
|          22|  5.8465e-01|   -3.816211|   -0.889188|   -0.103021|    3.087072|
|          23|  5.8896e-01|   -3.810405|   -0.861311|   -0.098962|    3.091050|
|          24|  5.9292e-01|   -3.804923|   -0.818704|   -0.098110|    3.094575|
|          25|  5.9604e-01|   -3.793671|   -0.794830|   -0.095438|    3.105987|
|          26|  5.9819e-01|   -3.783916|   -0.793389|   -0.091304|    3.118139|
|          27|  6.0250e-01|   -3.764378|   -0.776624|   -0.080524|    3.148333|
|          28|  6.0638e-01|   -3.738576|   -0.745028|   -0.061479|    3.200846|
|          29|  6.1030e-01|   -3.700623|   -0.691309|   -0.034472|    3.277901|
|          30|  6.1342e-01|   -3.650742|   -0.629287|   -0.000072|    3.366690|
|          31|  6.1606e-01|   -3.598461|   -0.556415|    0.039702|    3.450317|
|          32|  6.2061e-01|   -3.536536|   -0.494460|    0.077825|    3.489907|
|          33|  6.2441e-01|   -3.486926|   -0.418039|    0.109048|    3.518013|
|          34|  6.2886e-01|   -3.412336|   -0.319876|    0.173053|    3.562381|
|          35|  6.3244e-01|   -3.368116|   -0.230078|    0.206062|    3.625045|
|          36|  6.3541e-01|   -3.353690|   -0.230245|    0.220341|    3.646475|
|          37|  6.4008e-01|   -3.298615|   -0.224964|    0.259739|    3.671003|
|          38|  6.4528e-01|   -3.322868|   -0.195734|    0.253279|    3.670722|
|          39|  6.5182e-01|   -3.297740|   -0.178474|    0.290651|    3.698285|
|          40|  6.5583e-01|   -3.183612|   -0.125772|    0.380092|    3.753684|
|          41|  6.5967e-01|   -3.215297|   -0.115981|    0.375747|    3.753465|
|          42|  6.6412e-01|   -3.217613|   -0.090201|    0.359421|    3.727468|
|          43|  6.7009e-01|   -3.098334|    0.005129|    0.475814|    3.842522|
|          44|  6.7724e-01|   -3.056866|    0.055790|    0.500231|    3.840548|
|          45|  6.8063e-01|   -3.035829|    0.087824|    0.523492|    3.894412|
|          46|  6.8443e-01|   -2.984539|    0.144348|    0.551412|    3.900519|
|          47|  6.8773e-01|   -2.948851|    0.206508|    0.583820|    3.949752|
|          48|  6.9127e-01|   -2.851050|    0.285245|    0.684156|    4.037029|
|          49|  6.9486e-01|   -2.841903|    0.341446|    0.672121|    4.041345|
|          50|  6.9720e-01|   -2.773255|    0.418567|    0.740254|    4.107547|
|          51|  6.9973e-01|   -2.692260|    0.504831|    0.819277|    4.176555|
|          52|  7.0264e-01|   -2.617448|    0.589037|    0.884421|    4.232405|
|          53|  7.0389e-01|   -2.530505|    0.671060|    0.967563|    4.304767|
|          54|  7.0778e-01|   -2.529634|    0.669658|    0.967670|    4.307413|
|          55|  7.0996e-01|   -2.522846|    0.668190|    0.975592|    4.316428|
|          56|  7.1256e-01|   -2.515765|    0.668093|    0.985685|    4.330494|
|          57|  7.1569e-01|   -2.355352|    0.799787|    1.189168|    4.530690|
|          58|  7.1768e-01|   -2.359348|    0.830771|    1.138286|    4.461423|
|          59|  7.2152e-01|   -2.283655|    0.849561|    1.222910|    4.535460|
|          60|  7.2493e-01|   -2.288908|    0.881405|    1.202927|    4.527626|
|          61|  7.3305e-01|   -2.227614|    0.953880|    1.264108|    4.583628|
|          62|  7.3429e-01|   -2.163893|    1.029815|    1.330005|    4.638035|
|          63|  7.3537e-01|   -2.030044|    1.120151|    1.525479|    4.868595|
|          64|  7.3623e-01|   -2.022767|    1.179891|    1.468648|    4.770446|
|          65|  7.3720e-01|   -1.947648|    1.263024|    1.538579|    4.837459|
|          66|  7.3866e-01|   -1.861560|    1.349546|    1.624997|    4.922948|
|          67|  7.3975e-01|   -1.783659|    1.427784|    1.694633|    4.986572|
|          68|  7.3997e-01|   -1.705504|    1.504436|    1.769465|    5.058049|
|          69|  7.3987e-01|   -1.624352|    1.583309|    1.851935|    5.145649|
|          70|  7.4068e-01|   -1.543618|    1.663057|    1.930428|    5.226968|
|          71|  7.4038e-01|   -1.461199|    1.744560|    2.004510|    5.298706|
|          72|  7.3988e-01|   -1.379537|    1.826375|    2.079358|    5.371342|
|          73|  7.3984e-01|   -1.291213|    1.903323|    2.160271|    5.451140|
|          74|  7.4325e-01|   -1.215824|    1.986295|    2.240526|    5.532296|
|          75|  7.4329e-01|   -1.142547|    2.070279|    2.313913|    5.603447|
|          76|  7.4262e-01|   -1.058947|    2.156282|    2.386776|    5.671548|
|          77|  7.4121e-01|   -1.047708|    2.150876|    2.387379|    5.673334|
|          78|  7.4035e-01|   -0.961126|    2.230270|    2.469440|    5.744727|
|          79|  7.4018e-01|   -0.876165|    2.343308|    2.565796|    5.868950|
|          80|  7.3856e-01|   -0.815449|    2.402752|    2.628212|    5.920866|
|          81|  7.3699e-01|   -0.817219|    2.394958|    2.625488|    5.910030|
|          82|  7.3682e-01|   -0.817965|    2.394051|    2.625052|    5.908658|
|          83|  7.3544e-01|   -0.742395|    2.468577|    2.696148|    5.971344|
|          84|  7.3580e-01|   -0.671533|    2.542104|    2.764136|    6.037342|
|          85|  7.3506e-01|   -0.595073|    2.616743|    2.837574|    6.107731|
|          86|  7.3359e-01|   -0.517149|    2.695577|    2.912427|    6.181615|
|          87|  7.3220e-01|   -0.439552|    2.773966|    2.987209|    6.255224|
|          88|  7.3045e-01|   -0.361595|    2.852148|    3.062376|    6.329484|
|          89|  7.2876e-01|   -0.286122|    2.927923|    3.135811|    6.401642|
|          90|  7.2693e-01|   -0.208855|    3.005540|    3.210408|    6.475681|
|          91|  7.2532e-01|   -0.132421|    3.082158|    3.284732|    6.548211|
|          92|  7.2306e-01|   -0.055058|    3.159941|    3.359444|    6.622191|
|          93|  7.2153e-01|    0.022124|    3.237349|    3.434392|    6.694514|
|          94|  7.1954e-01|    0.099740|    3.315501|    3.509335|    6.769015|
|          95|  7.1706e-01|    0.177565|    3.393725|    3.584825|    6.841775|
|          96|  7.1485e-01|    0.255671|    3.472515|    3.660112|    6.916997|
|          97|  7.1296e-01|    0.334267|    3.551660|    3.736188|    6.990393|
|          98|  7.1239e-01|    0.412841|    3.631106|    3.811815|    7.066215|
|          99|  7.1057e-01|    0.492142|    3.711105|    3.888439|    7.140348|
|         100|  7.0895e-01|    0.571239|    3.791225|    3.964442|    7.216806|
|         101|  7.0523e-01|    0.651185|    3.872017|    4.041526|    7.291586|
|         102|  7.0156e-01|    0.652311|    3.873110|    4.042724|    7.291274|
|         103|  6.9796e-01|    0.653391|    3.874140|    4.043867|    7.291043|
|         104|  6.9445e-01|    0.654484|    3.875167|    4.045004|    7.290893|
|         105|  6.9099e-01|    0.655608|    3.876209|    4.046162|    7.290810|
|         106|  6.8775e-01|    0.656768|    3.877280|    4.047350|    7.290772|
|         107|  6.8456e-01|    0.657969|    3.878387|    4.048575|    7.290775|
|         108|  6.8138e-01|    0.659206|    3.879527|    4.049832|    7.290883|
|         109|  6.7822e-01|    0.660484|    3.880701|    4.051129|    7.291026|
|         110|  6.7515e-01|    0.661807|    3.881917|    4.052470|    7.291213|
|         111|  6.7208e-01|    0.663178|    3.883178|    4.053858|    7.291456|
|         112|  6.6914e-01|    0.664600|    3.884488|    4.055294|    7.291757|
|         113|  6.6616e-01|    0.666073|    3.885847|    4.056781|    7.292116|
|         114|  6.6327e-01|    0.667601|    3.887257|    4.058322|    7.292544|
|         115|  6.6038e-01|    0.669186|    3.888720|    4.059919|    7.293042|
|         116|  6.5754e-01|    0.670830|    3.890239|    4.061575|    7.293614|
|         117|  6.5481e-01|    0.672535|    3.891814|    4.063291|    7.294266|
|         118|  6.5200e-01|    0.674299|    3.893443|    4.065065|    7.295009|
|         119|  6.4944e-01|    0.676124|    3.895127|    4.066900|    7.295825|
|         120|  6.4683e-01|    0.678013|    3.896868|    4.068800|    7.296740|
|         121|  6.4417e-01|    0.679967|    3.898667|    4.070769|    7.297756|
|         122|  6.4160e-01|    0.681990|    3.900517|    4.072809|    7.298863|
|         123|  6.3919e-01|    0.684086|    3.902424|    4.074921|    7.300136|
|         124|  6.3681e-01|    0.686259|    3.904395|    4.077114|    7.301555|
|         125|  6.3448e-01|    0.688512|    3.906442|    4.079391|    7.303161|
|         126|  6.3219e-01|    0.690849|    3.908560|    4.081757|    7.304957|
|         127|  6.2995e-01|    0.693273|    3.910744|    4.084219|    7.306943|
|         128|  6.2770e-01|    0.695786|    3.912993|    4.086781|    7.309136|
|         129|  6.2552e-01|    0.698373|    3.915328|    4.089414|    7.311585|
|         130|  6.2334e-01|    0.701042|    3.917773|    4.092114|    7.314263|
|         131|  6.2105e-01|    0.703808|    3.920341|    4.094894|    7.317132|
|         132|  6.1898e-01|    0.706688|    3.923043|    4.097771|    7.320183|
|         133|  6.1687e-01|    0.709694|    3.925860|    4.100756|    7.323348|
|         134|  6.1480e-01|    0.712836|    3.928836|    4.103854|    7.326661|
|         135|  6.1282e-01|    0.716131|    3.931985|    4.107081|    7.330126|
|         136|  6.1082e-01|    0.719591|    3.935316|    4.110450|    7.333742|
|         137|  6.0888e-01|    0.723168|    3.938798|    4.113953|    7.337448|
|         138|  6.0690e-01|    0.726877|    3.942438|    4.117603|    7.341276|
|         139|  6.0492e-01|    0.730723|    3.946243|    4.121408|    7.345245|
|         140|  6.0301e-01|    0.734715|    3.950222|    4.125380|    7.349378|
|         141|  6.0120e-01|    0.738865|    3.954385|    4.129530|    7.353698|
|         142|  5.9934e-01|    0.743186|    3.958746|    4.133873|    7.358228|
|         143|  5.9749e-01|    0.747694|    3.963320|    4.138422|    7.362995|
|         144|  5.9566e-01|    0.752408|    3.968124|    4.143194|    7.368026|
|         145|  5.9382e-01|    0.757347|    3.973178|    4.148207|    7.373352|
|         146|  5.9202e-01|    0.762533|    3.978501|    4.153481|    7.379002|
|         147|  5.9024e-01|    0.767991|    3.984117|    4.159038|    7.385013|
|         148|  5.8847e-01|    0.773745|    3.990051|    4.164899|    7.391418|
|         149|  5.8673e-01|    0.779823|    3.996329|    4.171089|    7.398250|
|         150|  5.8502e-01|    0.786221|    4.002984|    4.177605|    7.405476|
|         151|  5.8344e-01|    0.793001|    4.010042|    4.184502|    7.413208|
|         152|  5.8178e-01|    0.800201|    4.017535|    4.191813|    7.421491|
|         153|  5.8018e-01|    0.807863|    4.025500|    4.199573|    7.430363|
|         154|  5.7861e-01|    0.816030|    4.033975|    4.207821|    7.439876|
|         155|  5.7707e-01|    0.824753|    4.043000|    4.216602|    7.450105|
|         156|  5.7551e-01|    0.834102|    4.052638|    4.225934|    7.461160|
|         157|  5.7395e-01|    0.844126|    4.062922|    4.235871|    7.472919|
|         158|  5.7240e-01|    0.854825|    4.073807|    4.246441|    7.484955|
|         159|  5.7091e-01|    0.866277|    4.085350|    4.257799|    7.497525|
|         160|  5.6944e-01|    0.878555|    4.097614|    4.269910|    7.510884|
|         161|  5.6796e-01|    0.891701|    4.110631|    4.282825|    7.524983|
|         162|  5.6654e-01|    0.905779|    4.124443|    4.296596|    7.539823|
|         163|  5.6512e-01|    0.920855|    4.139097|    4.311278|    7.555405|
|         164|  5.6370e-01|    0.936994|    4.154638|    4.326925|    7.571728|
|         165|  5.6233e-01|    0.954272|    4.171143|    4.343599|    7.588870|
|         166|  5.6096e-01|    0.972829|    4.188742|    4.361361|    7.606991|
|         167|  5.5964e-01|    0.993053|    4.207797|    4.380306|    7.626648|
|         168|  5.5830e-01|    1.014562|    4.228184|    4.400884|    7.647275|
|         169|  5.5699e-01|    1.037658|    4.250068|    4.423061|    7.669228|
|         170|  5.5568e-01|    1.062388|    4.273529|    4.446903|    7.692612|
|         171|  5.5436e-01|    1.088565|    4.298552|    4.472467|    7.717410|
|         172|  5.5288e-01|    1.116560|    4.325337|    4.499848|    7.743894|
|         173|  5.5140e-01|    1.117171|    4.325745|    4.500410|    7.744365|
|         174|  5.4989e-01|    1.117824|    4.326192|    4.501012|    7.744877|
|         175|  5.4844e-01|    1.118523|    4.326682|    4.501658|    7.745432|
|         176|  5.4699e-01|    1.119271|    4.327220|    4.502350|    7.746032|
|         177|  5.4554e-01|    1.120072|    4.327807|    4.503092|    7.746683|
|         178|  5.4406e-01|    1.120930|    4.328450|    4.503888|    7.747388|
|         179|  5.4272e-01|    1.121847|    4.329150|    4.504741|    7.748150|
|         180|  5.4139e-01|    1.122830|    4.329914|    4.505656|    7.748974|
|         181|  5.4002e-01|    1.123880|    4.330746|    4.506637|    7.749865|
|         182|  5.3865e-01|    1.125004|    4.331650|    4.507688|    7.750826|
|         183|  5.3725e-01|    1.126206|    4.332631|    4.508815|    7.751863|
|         184|  5.3595e-01|    1.127490|    4.333695|    4.510021|    7.752979|
|         185|  5.3466e-01|    1.128861|    4.334845|    4.511313|    7.754181|
|         186|  5.3332e-01|    1.130325|    4.336089|    4.512694|    7.755473|
|         187|  5.3205e-01|    1.131887|    4.337430|    4.514171|    7.756860|
|         188|  5.3081e-01|    1.133552|    4.338876|    4.515750|    7.758350|
|         189|  5.2950e-01|    1.135327|    4.340433|    4.517436|    7.759946|
|         190|  5.2828e-01|    1.137218|    4.342106|    4.519235|    7.761656|
|         191|  5.2705e-01|    1.139231|    4.343903|    4.521155|    7.763486|
|         192|  5.2580e-01|    1.141373|    4.345829|    4.523202|    7.765442|
|         193|  5.2462e-01|    1.143651|    4.347893|    4.525382|    7.767533|
|         194|  5.2342e-01|    1.146071|    4.350100|    4.527703|    7.769763|
|         195|  5.2221e-01|    1.148641|    4.352460|    4.530173|    7.772141|
|         196|  5.2099e-01|    1.151369|    4.354980|    4.532799|    7.774675|
|         197|  5.1991e-01|    1.154264|    4.357668|    4.535590|    7.777373|
|         198|  5.1874e-01|    1.157334|    4.360534|    4.538555|    7.780245|
|         199|  5.1769e-01|    1.160588|    4.363588|    4.541703|    7.783299|
|         200|  5.1661e-01|    1.164036|    4.366839|    4.545044|    7.786547|
|         201|  5.1550e-01|    1.167688|    4.370298|    4.548589|    7.790000|
|         202|  5.1467e-01|    1.171556|    4.373980|    4.552349|    7.793670|
|         203|  5.1385e-01|    1.175653|    4.377896|    4.556338|    7.797571|
|         204|  5.1300e-01|    1.179993|    4.382063|    4.560568|    7.801711|
|         205|  5.1210e-01|    1.184593|    4.386508|    4.565085|    7.806350|
|         206|  5.1130e-01|    1.189467|    4.391229|    4.569827|    7.810822|
|         207|  5.1041e-01|    1.194644|    4.396282|    4.574902|    7.815842|
|         208|  5.0955e-01|    1.200145|    4.401684|    4.580304|    7.821205|
|         209|  5.0868e-01|    1.205998|    4.407469|    4.586063|    7.826947|
|         210|  5.0790e-01|    1.212239|    4.413679|    4.592216|    7.833109|
|         211|  5.0709e-01|    1.218858|    4.420302|    4.598751|    7.839681|
|         212|  5.0629e-01|    1.225937|    4.427441|    4.605756|    7.846764|
|         213|  5.0549e-01|    1.233683|    4.435352|    4.613454|    7.854612|
|         214|  5.0471e-01|    1.241930|    4.443822|    4.621665|    7.863020|
|         215|  5.0394e-01|    1.250568|    4.452309|    4.630246|    7.871437|
|         216|  5.0317e-01|    1.259714|    4.461138|    4.639333|    7.880197|
|         217|  5.0239e-01|    1.269435|    4.470539|    4.649003|    7.889532|
|         218|  5.0164e-01|    1.279676|    4.480431|    4.659194|    7.899368|
|         219|  5.0088e-01|    1.290359|    4.490709|    4.669823|    7.909601|
|         220|  5.0010e-01|    1.301457|    4.501327|    4.680856|    7.920187|
|         221|  4.9941e-01|    1.312988|    4.512302|    4.692314|    7.931147|
|         222|  4.9868e-01|    1.246419|    4.534578|    4.655998|    7.980681|
|         223|  4.9794e-01|    1.318422|    4.511758|    4.695139|    7.929633|
|         224|  4.9724e-01|    1.328421|    4.520228|    4.704669|    7.938128|
|         225|  4.9651e-01|    1.340434|    4.530917|    4.716606|    7.949053|
|         226|  4.9579e-01|    1.360881|    4.550293|    4.735911|    7.967361|
|         227|  4.9504e-01|    1.282830|    4.538547|    4.678915|    7.971477|
|         228|  4.9437e-01|    1.313384|    4.590743|    4.715329|    8.025249|
|         229|  4.9366e-01|    1.318751|    4.592353|    4.719114|    8.026865|
|         230|  4.9301e-01|    1.344534|    4.511610|    4.714655|    7.930611|
|         231|  4.9230e-01|    1.359828|    4.524862|    4.729151|    7.943526|
|         232|  4.9159e-01|    1.374922|    4.537716|    4.743473|    7.956167|
|         233|  4.9091e-01|    1.389939|    4.550331|    4.757702|    7.968642|
|         234|  4.9023e-01|    1.404924|    4.562835|    4.771862|    7.981059|
|         235|  4.8952e-01|    1.419698|    4.575097|    4.785781|    7.993276|
|         236|  4.8884e-01|    1.433665|    4.586676|    4.798897|    8.004912|
|         237|  4.8816e-01|    1.446313|    4.597510|    4.810797|    8.015955|
|         238|  4.8749e-01|    1.456931|    4.608150|    4.821042|    8.027058|
|         239|  4.8689e-01|    1.465182|    4.621981|    4.830175|    8.041757|
|         240|  4.8624e-01|    1.476556|    4.656303|    4.846722|    8.077183|
|         241|  4.8558e-01|    1.497029|    4.701832|    4.873901|    8.122778|
|         242|  4.8493e-01|    1.546806|    4.791381|    4.935598|    8.211113|
|         243|  4.8430e-01|    1.669929|    4.946104|    5.076152|    8.371819|
|         244|  4.8353e-01|    1.635445|    4.899198|    5.036870|    8.321247|
|         245|  4.8278e-01|    1.638622|    4.902689|    5.040493|    8.324692|
|         246|  4.8202e-01|    1.670785|    4.938255|    5.074397|    8.360179|
|         247|  4.8127e-01|    1.799290|    5.071562|    5.205134|    8.493171|
|         248|  4.8053e-01|    1.980527|    5.249363|    5.385124|    8.670538|
|         249|  4.7979e-01|    2.264239|    5.523681|    5.665042|    8.944287|
|         250|  4.7904e-01|    3.051046|    6.296657|    6.446068|    9.716351|
+-----------------------------------------------------------------------+
|        File Writing Summary       |              Filename             |
+-----------------------------------------------------------------------+
|SU2 binary restart                 |restart_flow.dat                   |
|Paraview                           |flow.vtu                           |
|CSV file                           |surface_flow.csv                   |
+-----------------------------------------------------------------------+
+-----------------------------------------------------------------------------+
|  Inner_Iter|   Time(sec)|    rms[Rho]|   rms[RhoU]|   rms[RhoV]|   rms[RhoE]|
+-----------------------------------------------------------------------------+
|         251|  4.7909e-01|    2.892218|    6.130636|    6.283614|    9.547488|
|         252|  4.7837e-01|    2.595194|    5.830422|    5.984845|    9.245034|
|         253|  4.7759e-01|    2.592623|    5.825774|    5.980826|    9.239164|
|         254|  4.7693e-01|    2.590059|    5.821166|    5.976803|    9.233308|
|         255|  4.7618e-01|    2.587491|    5.816577|    5.972760|    9.227441|
|         256|  4.7548e-01|    2.584917|    5.811999|    5.968690|    9.221553|
|         257|  4.7474e-01|    2.582311|    5.807386|    5.964546|    9.215573|
|         258|  4.7404e-01|    2.579673|    5.802731|    5.960326|    9.209497|
|         259|  4.7336e-01|    2.576998|    5.798027|    5.956027|    9.203317|
|         260|  4.7262e-01|    2.574282|    5.793254|    5.951651|    9.197030|
|         261|  4.7195e-01|    2.571526|    5.788410|    5.947209|    9.190647|
|         262|  4.7129e-01|    2.568655|    5.783410|    5.942400|    9.183781|
|         263|  4.7056e-01|    2.565687|    5.778251|    5.937293|    9.176507|
|         264|  4.6991e-01|    2.562663|    5.772960|    5.932039|    9.169003|
|         265|  4.6920e-01|    2.559601|    5.767551|    5.926679|    9.161316|
|         266|  4.6861e-01|    2.556751|    5.762470|    5.921774|    9.154245|
|         267|  4.6791e-01|    2.554143|    5.757798|    5.917404|    9.147918|
|         268|  4.6728e-01|    2.551664|    5.753355|    5.913343|    9.142027|
|         269|  4.6664e-01|    2.549250|    5.749043|    5.909474|    9.136416|
|         270|  4.6599e-01|    2.546857|    5.744803|    5.905722|    9.130987|
|         271|  4.6534e-01|    2.544451|    5.740585|    5.902034|    9.125672|
|         272|  4.6471e-01|    2.541799|    5.736100|    5.897978|    9.120150|
|         273|  4.6406e-01|    2.540329|    5.732652|    5.894540|    9.115521|
|         274|  4.6339e-01|    2.540408|    5.730880|    5.893404|    9.112766|
|         275|  4.6279e-01|    2.540601|    5.729342|    5.892607|    9.110510|
|         276|  4.6219e-01|    2.540705|    5.727678|    5.891769|    9.108208|
|         277|  4.6158e-01|    2.540695|    5.725838|    5.890847|    9.105794|
|         278|  4.6099e-01|    2.540583|    5.723841|    5.889878|    9.103319|
|         279|  4.6045e-01|    2.540414|    5.721793|    5.888950|    9.100928|
|         280|  4.5985e-01|    2.539890|    5.719068|    5.887593|    9.097880|
|         281|  4.5926e-01|    2.539831|    5.717454|    5.887025|    9.096150|
|         282|  4.5863e-01|    2.539624|    5.715671|    5.886095|    9.093968|
|         283|  4.5812e-01|    2.539337|    5.714015|    5.885090|    9.091843|
|         284|  4.5754e-01|    2.538648|    5.711527|    5.883504|    9.088801|
|         285|  4.5693e-01|    2.538462|    5.710321|    5.882924|    9.087443|
|         286|  4.5641e-01|    2.537792|    5.708261|    5.881436|    9.084785|
|         287|  4.5585e-01|    2.536508|    5.705266|    5.878930|    9.080754|
|         288|  4.5529e-01|    2.535906|    5.703575|    5.878171|    9.079269|
|         289|  4.5473e-01|    2.535018|    5.701472|    5.876667|    9.076783|
|         290|  4.5420e-01|    2.533862|    5.699046|    5.874764|    9.073814|
|         291|  4.5365e-01|    2.532301|    5.696004|    5.872161|    9.069902|
|         292|  4.5311e-01|    2.530045|    5.691808|    5.868466|    9.064456|
|         293|  4.5258e-01|    2.528707|    5.689374|    5.866937|    9.062188|
|         294|  4.5204e-01|    2.526859|    5.686081|    5.864195|    9.058217|
|         295|  4.5155e-01|    2.523700|    5.680332|    5.859059|    9.050721|
|         296|  4.5101e-01|    2.522330|    5.678200|    5.857769|    9.049006|
|         297|  4.5048e-01|    2.519045|    5.672605|    5.852661|    9.041767|
|         298|  4.4997e-01|    2.517406|    5.670312|    5.851394|    9.040263|
|         299|  4.4941e-01|    2.514798|    5.666282|    5.847495|    9.035005|
|         300|  4.4890e-01|    2.510499|    5.659127|    5.841079|    9.026019|
|         301|  4.4840e-01|    2.508227|    5.656347|    5.839387|    9.024267|
|         302|  4.4790e-01|    2.505109|    5.653806|    5.831495|    9.014821|
|         303|  4.4735e-01|    2.501795|    5.648544|    5.830209|    9.013172|
|         304|  4.4686e-01|    2.497552|    5.641943|    5.824114|    9.004918|
|         305|  4.4637e-01|    2.493753|    5.637369|    5.820270|    9.000607|
|         306|  4.4583e-01|    2.489914|    5.631870|    5.814427|    8.992965|
|         307|  4.4534e-01|    2.484076|    5.623477|    5.806707|    8.982948|
|         308|  4.4482e-01|    2.479715|    5.618840|    5.803143|    8.979548|
|         309|  4.4434e-01|    2.477155|    5.614837|    5.799228|    8.974223|
|         310|  4.4386e-01|    2.471374|    5.605162|    5.791029|    8.962710|
|         311|  4.4341e-01|    2.467401|    5.601248|    5.787865|    8.959917|
|         312|  4.4288e-01|    2.463654|    5.595791|    5.782117|    8.952338|
|         313|  4.4244e-01|    2.455529|    5.587310|    5.774827|    8.945182|
|         314|  4.4196e-01|    2.455428|    5.585983|    5.773285|    8.942342|
|         315|  4.4149e-01|    2.448956|    5.578134|    5.765400|    8.933107|
|         316|  4.4098e-01|    2.427234|    5.556693|    5.743375|    8.911115|
|         317|  4.4063e-01|    2.442439|    5.569545|    5.757533|    8.923447|
|         318|  4.4031e-01|    2.441893|    5.566279|    5.754607|    8.917933|
|         319|  4.3992e-01|    2.369439|    5.495304|    5.680270|    8.843770|
|         320|  4.3958e-01|    2.432716|    5.554378|    5.742800|    8.903471|
|         321|  4.3928e-01|    2.347592|    5.472740|    5.655641|    8.817799|
|         322|  4.3893e-01|    2.352528|    5.477849|    5.661466|    8.824192|
|         323|  4.3859e-01|    2.432462|    5.551649|    5.739644|    8.897886|
|         324|  4.3825e-01|    2.433402|    5.551831|    5.740143|    8.897736|
|         325|  4.3791e-01|    2.432051|    5.549327|    5.738186|    8.894786|
|         326|  4.3758e-01|    2.434928|    5.552232|    5.741029|    8.897709|
|         327|  4.3725e-01|    2.432406|    5.548606|    5.737965|    8.893720|
|         328|  4.3691e-01|    2.433378|    5.549476|    5.738884|    8.894622|
|         329|  4.3663e-01|    2.429311|    5.544323|    5.734341|    8.889193|
|         330|  4.3630e-01|    2.431849|    5.547511|    5.737233|    8.892764|
|         331|  4.3598e-01|    2.419556|    5.532794|    5.723915|    8.877394|
|         332|  4.3565e-01|    2.438803|    5.557090|    5.745623|    8.903719|
|         333|  4.3533e-01|    2.360005|    5.467600|    5.661694|    8.810917|
|         334|  4.3501e-01|    2.340748|    5.449156|    5.642854|    8.793396|
|         335|  4.3473e-01|    2.321234|    5.437860|    5.626482|    8.785235|
|         336|  4.3443e-01|    2.327540|    5.462963|    5.639921|    8.815457|
|         337|  4.3411e-01|    2.366561|    5.508458|    5.694265|    8.876975|
|         338|  4.3380e-01|    3.332219|    6.551747|    6.672252|    9.908209|
|         339|  4.3349e-01|    2.196701|    5.434654|    5.510156|    8.759454|
|         340|  4.3318e-01|    2.172363|    5.389647|    5.504802|    8.744333|
|         341|  4.3287e-01|    2.263633|    5.442930|    5.597488|    8.806724|
|         342|  4.3257e-01|    2.272252|    5.432553|    5.602111|    8.795486|
|         343|  4.3226e-01|    2.264775|    5.435359|    5.593955|    8.793670|
|         344|  4.3196e-01|    2.197897|    5.375849|    5.524338|    8.728357|
|         345|  4.3166e-01|    2.124151|    5.304822|    5.446559|    8.651615|
|         346|  4.3141e-01|    2.050075|    5.224998|    5.366714|    8.566824|
|         347|  4.3114e-01|    2.259592|    5.446506|    5.597961|    8.812442|
|         348|  4.3086e-01|    1.972653|    5.116797|    5.281243|    8.458840|
|         349|  4.3057e-01|    1.972034|    5.084298|    5.281064|    8.438482|
|         350|  4.3031e-01|    2.064616|    5.166463|    5.380429|    8.534866|
|         351|  4.3005e-01|    2.102177|    5.216485|    5.421438|    8.585031|
|         352|  4.2974e-01|    2.065680|    5.189373|    5.387058|    8.557789|
|         353|  4.2950e-01|    2.354210|    5.524527|    5.699231|    8.904517|
|         354|  4.2924e-01|    3.861352|    7.012154|    7.173949|   10.354246|
|         355|  4.2886e-01|    3.317872|    6.472271|    6.595550|    9.769851|
|         356|  4.2849e-01|    3.042593|    6.197811|    6.328360|    9.506472|
|         357|  4.2810e-01|    2.801257|    5.957079|    6.093531|    9.275562|
|         358|  4.2775e-01|    2.619035|    5.777476|    5.915381|    9.102256|
|         359|  4.2733e-01|    2.569767|    5.721035|    5.873131|    9.057419|
|         360|  4.2701e-01|    2.502107|    5.659171|    5.807589|    8.997566|
|         361|  4.2661e-01|    2.497940|    5.652192|    5.807649|    8.997033|
|         362|  4.2625e-01|    2.517273|    5.665574|    5.830421|    9.016397|
|         363|  4.2592e-01|    2.481909|    5.636766|    5.796675|    8.987960|
|         364|  4.2557e-01|    2.485718|    5.640068|    5.802466|    8.993983|
|         365|  4.2522e-01|    2.508928|    5.659462|    5.825794|    9.014538|
|         366|  4.2484e-01|    2.506421|    5.657250|    5.823656|    9.012706|
|         367|  4.2451e-01|    2.502218|    5.653389|    5.819569|    9.008899|
|         368|  4.2417e-01|    2.497366|    5.648889|    5.814734|    9.004326|
|         369|  4.2380e-01|    2.492200|    5.644075|    5.809541|    8.999384|
|         370|  4.2347e-01|    2.486874|    5.639095|    5.804167|    8.994252|
|         371|  4.2311e-01|    2.481464|    5.634027|    5.798701|    8.989019|
|         372|  4.2276e-01|    2.476016|    5.628914|    5.793193|    8.983737|
|         373|  4.2241e-01|    2.470564|    5.623790|    5.787679|    8.978441|
|         374|  4.2210e-01|    2.465140|    5.618687|    5.782193|    8.973165|
|         375|  4.2174e-01|    2.459779|    5.613643|    5.776771|    8.967945|
|         376|  4.2142e-01|    2.454524|    5.608702|    5.771456|    8.962825|
|         377|  4.2108e-01|    2.449426|    5.603916|    5.766302|    8.957859|
|         378|  4.2076e-01|    2.444547|    5.599350|    5.761370|    8.953110|
|         379|  4.2042e-01|    2.440616|    5.595785|    5.757414|    8.949361|
|         380|  4.2006e-01|    2.437484|    5.593052|    5.754275|    8.946441|
|         381|  4.1976e-01|    2.434794|    5.590766|    5.751585|    8.943963|
|         382|  4.1943e-01|    2.432677|    5.589058|    5.749474|    8.942055|
|         383|  4.1910e-01|    2.431293|    5.588093|    5.748104|    8.940880|
|         384|  4.1878e-01|    2.430900|    5.588113|    5.747736|    8.940687|
|         385|  4.1847e-01|    2.430155|    5.587731|    5.746979|    8.940044|
|         386|  4.1815e-01|    2.431130|    5.589106|    5.747956|    8.941135|
|         387|  4.1785e-01|    2.434430|    5.592842|    5.751277|    8.944566|
|         388|  4.1752e-01|    2.440653|    5.599524|    5.757536|    8.950916|
|         389|  4.1723e-01|    2.450597|    5.609924|    5.767527|    8.960956|
|         390|  4.1692e-01|    2.465517|    5.625260|    5.782505|    8.975910|
|         391|  4.1662e-01|    2.487582|    5.647628|    5.804679|    8.997935|
|         392|  4.1631e-01|    2.519449|    5.679616|    5.836646|    9.029544|
|         393|  4.1602e-01|    2.565737|    5.725703|    5.883033|    9.075260|
|         394|  4.1569e-01|    2.634515|    5.793785|    5.951898|    9.142996|
|         395|  4.1540e-01|    2.739080|    5.896962|    6.056471|    9.245827|
|         396|  4.1509e-01|    2.846231|    6.002305|    6.163254|    9.350613|
|         397|  4.1480e-01|    2.932072|    6.086238|    6.247829|    9.433055|
|         398|  4.1451e-01|    2.940766|    6.093300|    6.254394|    9.437563|
|         399|  4.1421e-01|    5.122676|    8.215706|    8.444725|   11.595517|
|         400|  4.1387e-01|    4.480278|    7.572177|    7.799233|   10.947913|
|         401|  4.1361e-01|    4.342124|    7.430254|    7.667091|   10.816736|
|         402|  4.1333e-01|    3.831849|    6.917337|    7.162161|   10.312738|
|         403|  4.1303e-01|    3.804326|    6.892460|    7.132808|   10.283726|
|         404|  4.1273e-01|    3.688380|    6.806819|    6.995007|   10.153233|
|         405|  4.1243e-01|    3.733135|    6.824734|    7.058653|   10.209836|
|         406|  4.1215e-01|    3.688143|    6.804149|    6.993953|   10.150413|
|         407|  4.1188e-01|    3.607898|    6.724221|    6.912155|   10.068070|
|         408|  4.1159e-01|    3.668747|    6.759127|    6.993660|   10.143976|
|         409|  4.1130e-01|    3.641481|    6.754209|    6.945772|   10.099689|
|         410|  4.1099e-01|    3.575730|    6.687227|    6.879869|   10.033037|
|         411|  4.1073e-01|    3.647545|    6.732273|    6.975433|   10.124471|
|         412|  4.1044e-01|    3.583083|    6.692263|    6.886234|   10.037623|
|         413|  4.1012e-01|    3.506325|    6.614105|    6.809371|    9.959952|
|         414|  4.0986e-01|    3.650325|    6.731175|    6.981199|   10.129921|
|         415|  4.0958e-01|    3.543550|    6.649164|    6.845521|    9.994356|
|         416|  4.0927e-01|    3.449471|    6.553533|    6.751473|    9.899496|
|         417|  4.0901e-01|    3.315296|    6.419212|    6.614778|    9.761502|
|         418|  4.0879e-01|    3.605562|    6.684463|    6.937654|   10.086124|
|         419|  4.0851e-01|    3.482554|    6.583811|    6.782233|    9.927607|
|         420|  4.0824e-01|    3.362228|    6.461653|    6.662159|    9.806707|
|         421|  4.0798e-01|    3.250237|    6.348134|    6.550366|    9.694289|
|         422|  4.0772e-01|    3.144277|    6.241107|    6.444583|    9.588207|
|         423|  4.0742e-01|    3.680827|    6.759804|    7.012885|   10.161464|
|         424|  4.0718e-01|    3.466231|    6.562529|    6.764389|    9.906260|
|         425|  4.0690e-01|    3.281961|    6.375869|    6.580903|    9.721973|
|         426|  4.0661e-01|    3.122288|    6.214968|    6.421896|    9.562911|
|         427|  4.0636e-01|    2.979116|    6.072932|    6.279359|    9.421857|
|         428|  4.0606e-01|    2.855421|    5.953593|    6.159377|    9.306443|
|         429|  4.0580e-01|    2.742257|    5.851472|    6.048192|    9.202851|
|         430|  4.0556e-01|    2.670762|    5.792163|    5.978217|    9.140631|
|         431|  4.0526e-01|    2.618722|    5.754364|    5.926566|    9.097545|
|         432|  4.0501e-01|    3.395126|    6.473464|    6.726442|    9.874218|
|         433|  4.0478e-01|    3.031409|    6.120871|    6.339752|    9.482817|
|         434|  4.0451e-01|    2.836076|    5.932814|    6.143965|    9.291308|
|         435|  4.0423e-01|    2.701172|    5.814330|    6.008082|    9.164823|
|         436|  4.0400e-01|    2.610624|    5.746762|    5.916479|    9.086638|
|         437|  4.0375e-01|    2.574077|    5.724301|    5.878468|    9.056773|
|         438|  4.0346e-01|    2.559793|    5.716546|    5.862673|    9.044527|
|         439|  4.0323e-01|    2.553836|    5.713516|    5.855568|    9.038865|
|         440|  4.0298e-01|    2.551357|    5.712170|    5.852489|    9.036290|
|         441|  4.0270e-01|    2.550380|    5.711340|    5.851176|    9.034934|
|         442|  4.0247e-01|    2.549937|    5.710494|    5.850560|    9.033977|
|         443|  4.0219e-01|    2.549494|    5.709332|    5.850095|    9.033028|
|         444|  4.0196e-01|    2.548781|    5.707743|    5.849508|    9.031914|
|         445|  4.0179e-01|    2.547069|    5.705076|    5.848049|    9.029928|
|         446|  4.0162e-01|    2.546427|    5.703504|    5.848255|    9.029834|
|         447|  4.0148e-01|    2.545965|    5.701444|    5.848720|    9.029467|
|         448|  4.0130e-01|    2.538944|    5.693846|    5.842432|    9.023152|
|         449|  4.0111e-01|    2.527660|    5.684326|    5.835347|    9.018370|
|         450|  4.0094e-01|    2.512020|    5.663759|    5.817489|    8.997284|
|         451|  4.0079e-01|    2.503638|    5.653503|    5.806413|    8.983983|
|         452|  4.0063e-01|    2.526840|    5.664830|    5.835887|    9.008425|
|         453|  4.0046e-01|    2.869528|    5.978031|    6.187628|    9.345529|
|         454|  4.0032e-01|    2.774096|    5.888804|    6.074771|    9.229602|
|         455|  4.0016e-01|    2.609984|    5.764883|    5.917500|    9.099932|
|         456|  4.0002e-01|    2.633628|    5.787059|    5.942214|    9.123711|
|         457|  3.9986e-01|    2.634913|    5.786759|    5.943675|    9.124043|
|         458|  3.9970e-01|    2.631831|    5.782353|    5.940443|    9.119749|
|         459|  3.9955e-01|    2.626857|    5.776297|    5.935957|    9.114530|
|         460|  3.9939e-01|    2.620020|    5.768620|    5.930585|    9.108793|
|         461|  3.9924e-01|    2.613841|    5.762013|    5.924417|    9.102280|
|         462|  3.9908e-01|    2.606771|    5.753300|    5.917540|    9.094348|
|         463|  3.9894e-01|    2.588410|    5.736559|    5.899470|    9.077199|
|         464|  3.9878e-01|    2.579243|    5.730618|    5.888167|    9.067307|
|         465|  3.9863e-01|    2.525708|    5.686926|    5.833672|    9.019104|
|         466|  3.9848e-01|    2.496234|    5.677035|    5.803225|    9.001996|
|         467|  3.9836e-01|    2.596845|    5.765715|    5.905609|    9.096568|
|         468|  3.9821e-01|    2.621663|    5.794575|    5.930652|    9.124451|
|         469|  3.9806e-01|    2.616129|    5.787321|    5.924992|    9.117490|
|         470|  3.9792e-01|    2.502920|    5.627204|    5.812365|    8.975105|
|         471|  3.9777e-01|    2.507759|    5.688971|    5.816294|    9.015810|
|         472|  3.9763e-01|    2.271652|    5.389591|    5.577853|    8.736112|
|         473|  3.9749e-01|    2.427423|    5.539190|    5.738002|    8.894189|
|         474|  3.9737e-01|    2.421340|    5.528772|    5.731879|    8.885486|
|         475|  3.9725e-01|    2.411439|    5.515304|    5.721758|    8.873171|
|         476|  3.9712e-01|    2.398023|    5.498352|    5.708136|    8.857364|
|         477|  3.9699e-01|    2.352755|    5.451257|    5.661964|    8.809690|
|         478|  3.9685e-01|    2.519376|    5.611105|    5.830714|    8.975628|
|         479|  3.9670e-01|    2.511449|    5.601876|    5.822531|    8.966662|
|         480|  3.9658e-01|    2.625414|    5.710240|    5.936473|    9.077449|
|         481|  3.9645e-01|    2.347725|    5.448511|    5.654004|    8.801149|
|         482|  3.9631e-01|    2.909608|    5.989534|    6.222575|    9.361793|
|         483|  3.9619e-01|    3.152692|    6.224911|    6.477233|    9.618853|
|         484|  3.9603e-01|    2.817727|    5.888201|    6.132813|    9.268274|
|         485|  3.9589e-01|    2.907814|    5.961913|    6.233271|    9.366714|
|         486|  3.9580e-01|    2.919385|    5.972925|    6.242715|    9.374867|
|         487|  3.9566e-01|    2.874303|    5.925387|    6.194931|    9.324551|
|         488|  3.9553e-01|    2.743194|    5.784770|    6.056215|    9.176841|
|         489|  3.9540e-01|    3.418926|    6.485185|    6.737895|    9.873459|
|         490|  3.9529e-01|    3.365973|    6.422742|    6.684858|    9.815916|
|         491|  3.9516e-01|    3.183817|    6.230752|    6.502889|    9.629467|
|         492|  3.9505e-01|    2.934444|    5.970064|    6.254247|    9.375872|
|         493|  3.9491e-01|    2.196948|    5.280294|    5.527532|    8.682097|
|         494|  3.9478e-01|    2.216277|    5.284461|    5.540953|    8.683359|
|         495|  3.9465e-01|    2.459653|    5.481313|    5.781594|    8.896146|
|         496|  3.9452e-01|    2.822655|    5.850835|    6.139882|    9.255789|
|         497|  3.9438e-01|    2.817986|    5.834249|    6.134166|    9.244109|
|         498|  3.9425e-01|    2.872274|    5.905419|    6.189706|    9.310156|
|         499|  3.9412e-01|    3.161715|    6.189611|    6.474306|    9.589481|
|         500|  3.9402e-01|    3.034690|    6.056219|    6.341433|    9.450497|
+-----------------------------------------------------------------------+
|        File Writing Summary       |              Filename             |
+-----------------------------------------------------------------------+
|SU2 binary restart                 |restart_flow.dat                   |
|Paraview                           |flow.vtu                           |
|CSV file                           |surface_flow.csv                   |
+-----------------------------------------------------------------------+
+-----------------------------------------------------------------------------+
|  Inner_Iter|   Time(sec)|    rms[Rho]|   rms[RhoU]|   rms[RhoV]|   rms[RhoE]|
+-----------------------------------------------------------------------------+
|         501|  3.9435e-01|    2.792444|    5.789799|    6.087865|    9.179827|
|         502|  3.9431e-01|    2.397659|    5.474624|    5.713808|    8.852285|
|         503|  3.9428e-01|    2.771492|    5.784691|    6.079401|    9.182560|
|         504|  3.9421e-01|    2.503307|    5.602033|    5.817440|    8.968760|
|         505|  3.9417e-01|    2.433784|    5.581550|    5.753539|    8.928268|
|         506|  3.9421e-01|    2.406992|    5.531727|    5.850906|    8.989561|
|         507|  3.9422e-01|    2.493708|    5.582814|    5.879411|    9.031362|
|         508|  3.9409e-01|    4.415078|    7.494545|    7.723729|   10.861053|
|         509|  3.9391e-01|    4.415006|    7.492331|    7.726144|   10.863585|
|         510|  3.9370e-01|    3.800358|    6.880690|    7.109908|   10.248150|
|         511|  3.9352e-01|    3.823774|    6.905189|    7.132207|   10.270498|
|         512|  3.9329e-01|    3.838491|    6.920406|    7.143716|   10.280898|
|         513|  3.9312e-01|    3.857444|    6.938904|    7.161746|   10.298230|
|         514|  3.9292e-01|    3.876362|    6.957355|    7.179934|   10.315808|
|         515|  3.9273e-01|    3.895597|    6.976097|    7.198568|   10.333880|
|         516|  3.9252e-01|    3.915284|    6.995260|    7.217746|   10.352524|
|         517|  3.9235e-01|    3.935535|    7.014948|    7.237537|   10.371780|
|         518|  3.9215e-01|    3.956416|    7.035208|    7.258020|   10.391723|
|         519|  3.9197e-01|    3.977961|    7.056090|    7.279217|   10.412387|
|         520|  3.9179e-01|    4.000304|    7.077734|    7.301258|   10.433900|
|         521|  3.9161e-01|    4.023685|    7.100393|    7.324375|   10.456498|
|         522|  3.9143e-01|    4.047208|    7.123218|    7.347675|   10.479315|
|         523|  3.9125e-01|    4.071158|    7.146503|    7.371434|   10.502626|
|         524|  3.9106e-01|    4.095937|    7.170656|    7.396047|   10.526824|
|         525|  3.9087e-01|    4.122131|    7.196274|    7.422096|   10.552496|
|         526|  3.9069e-01|    4.150653|    7.224278|    7.450488|   10.580551|
|         527|  3.9052e-01|    4.182734|    7.255912|    7.482455|   10.612225|
|         528|  3.9033e-01|    4.220458|    7.293274|    7.520077|   10.649606|
|         529|  3.9016e-01|    4.267446|    7.340011|    7.566974|   10.696326|
|         530|  3.8998e-01|    4.330765|    7.403228|    7.630212|   10.759469|
|         531|  3.8984e-01|    4.427251|    7.499842|    7.726628|   10.855918|
|         532|  3.8968e-01|    4.616331|    7.689486|    7.915658|   11.045218|
|         533|  3.8957e-01|    2.893531|    5.967787|    6.228402|    9.380938|
|         534|  3.8945e-01|    3.556800|    6.630701|    6.869327|   10.006074|
|         535|  3.8935e-01|    3.516611|    6.590533|    6.820092|    9.952541|
|         536|  3.8925e-01|    3.489390|    6.563306|    6.788173|    9.918427|
|         537|  3.8913e-01|    3.460728|    6.534542|    6.757772|    9.886949|
|         538|  3.8899e-01|    3.430574|    6.504451|    6.726144|    9.854581|
|         539|  3.8891e-01|    3.401821|    6.480116|    6.694595|    9.825646|
|         540|  3.8877e-01|    3.367681|    6.444062|    6.660370|    9.789732|
|         541|  3.8868e-01|    3.332133|    6.407125|    6.624859|    9.752963|
|         542|  3.8859e-01|    3.295324|    6.369353|    6.588195|    9.715392|
|         543|  3.8848e-01|    3.258112|    6.332020|    6.551057|    9.678170|
|         544|  3.8837e-01|    3.221367|    6.296571|    6.513972|    9.642099|
|         545|  3.8826e-01|    3.181356|    6.255336|    6.474993|    9.602303|
|         546|  3.8815e-01|    3.144741|    6.221625|    6.437952|    9.567798|
|         547|  3.8804e-01|    3.102849|    6.177181|    6.398238|    9.526451|
|         548|  3.8793e-01|    3.072850|    6.146773|    6.369543|    9.497939|
|         549|  3.8783e-01|    3.072086|    6.148046|    6.367769|    9.497496|
|         550|  3.8772e-01|    3.067153|    6.140910|    6.363670|    9.491569|
|         551|  3.8761e-01|    3.067961|    6.145130|    6.362620|    9.492856|
|         552|  3.8751e-01|    3.063162|    6.136793|    6.359093|    9.486368|
|         553|  3.8732e-01|    5.864891|    8.943106|    9.171853|   12.307714|
|         554|  3.8715e-01|    4.025882|    7.106534|    7.335419|   10.473708|
|         555|  3.8699e-01|    4.362016|    7.442738|    7.672371|   10.811130|
|         556|  3.8680e-01|    5.472505|    8.552589|    8.784098|   11.923165|
|         557|  3.8664e-01|    3.189932|    6.265018|    6.477788|    9.601983|
|         558|  3.8648e-01|    3.191537|    6.266766|    6.479654|    9.604043|
|         559|  3.8629e-01|    3.193055|    6.268117|    6.481693|    9.606233|
|         560|  3.8613e-01|    3.194734|    6.269893|    6.483733|    9.608460|
|         561|  3.8597e-01|    3.196333|    6.271382|    6.485938|    9.610861|
|         562|  3.8580e-01|    3.199516|    6.275954|    6.489137|    9.615439|
|         563|  3.8563e-01|    3.199968|    6.274985|    6.490914|    9.616396|
|         564|  3.8548e-01|    3.203262|    6.279806|    6.494331|    9.621419|
|         565|  3.8531e-01|    3.202397|    6.277442|    6.494994|    9.621345|
|         566|  3.8513e-01|    3.204503|    6.281467|    6.497116|    9.625380|
|         567|  3.8498e-01|    3.202933|    6.278061|    6.497230|    9.624510|
|         568|  3.8480e-01|    3.203414|    6.278850|    6.497925|    9.625641|
|         569|  3.8466e-01|    3.203118|    6.278166|    6.497246|    9.624522|
|         570|  3.8449e-01|    3.204025|    6.279138|    6.497629|    9.624695|
|         571|  3.8433e-01|    3.206639|    6.283029|    6.499319|    9.627245|
|         572|  3.8415e-01|    3.207065|    6.282128|    6.500038|    9.626865|
|         573|  3.8400e-01|    3.211968|    6.288838|    6.504005|    9.632185|
|         574|  3.8382e-01|    3.213773|    6.288874|    6.506309|    9.633056|
|         575|  3.8367e-01|    3.220505|    6.297233|    6.512065|    9.639990|
|         576|  3.8352e-01|    3.225113|    6.300218|    6.517086|    9.643700|
|         577|  3.8334e-01|    5.596641|    8.639881|    8.900934|   12.018316|
|         578|  3.8320e-01|    4.455450|    7.501648|    7.758957|   10.877280|
|         579|  3.8304e-01|    4.433858|    7.473335|    7.737021|   10.852044|
|         580|  3.8287e-01|    4.347475|    7.386661|    7.650113|   10.764722|
|         581|  3.8272e-01|    4.259952|    7.299120|    7.562106|   10.676463|
|         582|  3.8260e-01|    4.185877|    7.224769|    7.487593|   10.601579|
|         583|  3.8246e-01|    4.124251|    7.162499|    7.425520|   10.538957|
|         584|  3.8237e-01|    4.071948|    7.109231|    7.372873|   10.485683|
|         585|  3.8229e-01|    4.024344|    7.060486|    7.325197|   10.437455|
|         586|  3.8220e-01|    3.982204|    7.017183|    7.283063|   10.394811|
|         587|  3.8211e-01|    3.940821|    6.974642|    7.241601|   10.352801|
|         588|  3.8202e-01|    3.899996|    6.932564|    7.200821|   10.311486|
|         589|  3.8193e-01|    3.859011|    6.890372|    7.159858|   10.270018|
|         590|  3.8184e-01|    3.817104|    6.847284|    7.118017|   10.227707|
|         591|  3.8179e-01|    3.765214|    6.785481|    7.066290|   10.171776|
|         592|  3.8172e-01|    3.689854|    6.693735|    6.991501|   10.090745|
|         593|  3.8162e-01|    3.599420|    6.595231|    6.903848|   10.001769|
|         594|  3.8156e-01|    3.609302|    6.645420|    6.919331|   10.036781|
|         595|  3.8147e-01|    3.688891|    6.740608|    6.999200|   10.123342|
|         596|  3.8130e-01|    3.770041|    6.821031|    7.079153|   10.202346|
|         597|  3.8116e-01|    3.830233|    6.878052|    7.136517|   10.256776|
|         598|  3.8102e-01|    3.876741|    6.922158|    7.179323|   10.296528|
|         599|  3.8085e-01|    3.904099|    6.947581|    7.202095|   10.316028|
|         600|  3.8069e-01|    3.943237|    6.986284|    7.236697|   10.348083|
|         601|  3.8054e-01|    3.960999|    7.003885|    7.249520|   10.358373|
|         602|  3.8041e-01|    3.952558|    6.994681|    7.237246|   10.343788|
|         603|  3.8032e-01|    3.942120|    6.984822|    7.225777|   10.332186|
|         604|  3.8023e-01|    3.914916|    6.958156|    7.200240|   10.307733|
|         605|  3.8013e-01|    5.106638|    8.150292|    8.394731|   11.503816|
|         606|  3.7998e-01|    4.635594|    7.682714|    7.931075|   11.045642|
|         607|  3.7982e-01|    4.807838|    7.857886|    8.111426|   11.231620|
|         608|  3.7969e-01|    4.697162|    7.749097|    8.006856|   11.131163|
|         609|  3.7955e-01|    4.530769|    7.583851|    7.845035|   10.972322|
|         610|  3.7939e-01|    4.357757|    7.411914|    7.675691|   10.805451|
|         611|  3.7926e-01|    4.089847|    7.150295|    7.411315|   10.545935|
|         612|  3.7909e-01|    4.223403|    7.294378|    7.546836|   10.687390|
|         613|  3.7896e-01|    4.193204|    7.262108|    7.516415|   10.655847|
|         614|  3.7883e-01|    3.885584|    6.951453|    7.208079|   10.345563|
|         615|  3.7875e-01|    2.858465|    5.929165|    6.187970|    9.325084|
|         616|  3.7867e-01|    2.892691|    5.935496|    6.222417|    9.347394|
|         617|  3.7858e-01|    2.883481|    5.935774|    6.209868|    9.336526|
|         618|  3.7850e-01|    4.735996|    7.837234|    8.109639|   11.291234|
|         619|  3.7842e-01|    4.748013|    7.849336|    8.128507|   11.313987|
|         620|  3.7826e-01|    5.021624|    8.122991|    8.402153|   11.587669|
|         621|  3.7813e-01|    4.955789|    8.057165|    8.336319|   11.521839|
|         622|  3.7803e-01|    5.069049|    8.170415|    8.449570|   11.635081|
|         623|  3.7789e-01|    5.086707|    8.188063|    8.467222|   11.652725|
|         624|  3.7773e-01|    4.733940|    7.835284|    8.114456|   11.299958|
|         625|  3.7764e-01|    4.740698|    7.842023|    8.121190|   11.306670|
|         626|  3.7752e-01|    4.305771|    7.406953|    7.686189|   10.871592|
|         627|  3.7738e-01|    4.303964|    7.405092|    7.684297|   10.869626|
|         628|  3.7728e-01|    3.839298|    6.939021|    7.218711|   10.403151|
|         629|  3.7715e-01|    3.827139|    6.926627|    7.206249|   10.390417|
|         630|  3.7709e-01|    3.375138|    6.463153|    6.745862|    9.921993|
|         631|  3.7703e-01|    3.424743|    6.514178|    6.795916|    9.972658|
|         632|  3.7694e-01|    3.140398|    6.189319|    6.478143|    9.619144|
|         633|  3.7691e-01|    3.260970|    6.324747|    6.606683|    9.759414|
|         634|  3.7691e-01|    3.244600|    6.292186|    6.566386|    9.695116|
|         635|  3.7688e-01|    3.271313|    6.329213|    6.592476|    9.725347|
|         636|  3.7681e-01|    3.211063|    6.277543|    6.536896|    9.676199|
|         637|  3.7673e-01|    3.274101|    6.341697|    6.598652|    9.737783|
|         638|  3.7665e-01|    3.270961|    6.340467|    6.598760|    9.740694|
|         639|  3.7658e-01|    3.202196|    6.280006|    6.541716|    9.693768|
|         640|  3.7650e-01|    3.224585|    6.306336|    6.568451|    9.724640|
|         641|  3.7643e-01|    3.260754|    6.347246|    6.609215|    9.769521|
|         642|  3.7637e-01|    3.344178|    6.425830|    6.690198|    9.847328|
|         643|  3.7628e-01|    3.374391|    6.467772|    6.727539|    9.893008|
|         644|  3.7623e-01|    3.487030|    6.568590|    6.832795|    9.989915|
|         645|  3.7615e-01|    3.526320|    6.619259|    6.879485|   10.044675|
|         646|  3.7608e-01|    3.656843|    6.737794|    7.000551|   10.156387|
|         647|  3.7600e-01|    3.719985|    6.802803|    7.066048|   10.223695|
|         648|  3.7596e-01|    3.786074|    6.870705|    7.134014|   10.293217|
|         649|  3.7588e-01|    3.855435|    6.941672|    7.204780|   10.365233|
|         650|  3.7586e-01|    3.925812|    7.013768|    7.276555|   10.438273|
|         651|  3.7583e-01|    4.000972|    7.090044|    7.352352|   10.514758|
|         652|  3.7574e-01|    4.077720|    7.167714|    7.429512|   10.592429|
|         653|  3.7571e-01|    4.155245|    7.247216|    7.507525|   10.671426|
|         654|  3.7564e-01|    4.234165|    7.325750|    7.586325|   10.749985|
|         655|  3.7559e-01|    4.315763|    7.410302|    7.668378|   10.834102|
|         656|  3.7551e-01|    4.361000|    7.455618|    7.713576|   10.879448|
|         657|  3.7541e-01|    4.386239|    7.481070|    7.738896|   10.904968|
|         658|  3.7528e-01|    4.412640|    7.507702|    7.765374|   10.931653|
|         659|  3.7518e-01|    4.383112|    7.458916|    7.730471|   10.881464|
|         660|  3.7506e-01|    4.400109|    7.480938|    7.749198|   10.903563|
|         661|  3.7492e-01|    4.396667|    7.473166|    7.744547|   10.895097|
|         662|  3.7483e-01|    4.389071|    7.458428|    7.734898|   10.879479|
|         663|  3.7471e-01|    4.378067|    7.438741|    7.721256|   10.858959|
|         664|  3.7459e-01|    4.358153|    7.408982|    7.697572|   10.829291|
|         665|  3.7448e-01|    4.317630|    7.388857|    7.654622|   10.817931|
|         666|  3.7434e-01|    4.435740|    7.853906|    7.888292|   11.309582|
|         667|  3.7424e-01|    4.393359|    7.456862|    7.737956|   10.877318|
|         668|  3.7411e-01|    4.324027|    7.383168|    7.658791|   10.810894|
|         669|  3.7399e-01|    4.955268|    8.378178|    8.415828|   11.831016|
|         670|  3.7387e-01|    5.017865|    8.430238|    8.481618|   11.888851|
|         671|  3.7376e-01|    4.425364|    7.512482|    7.776454|   10.936026|
|         672|  3.7365e-01|    4.738370|    8.169646|    8.213537|   11.635099|
|         673|  3.7353e-01|    5.084502|    8.479800|    8.544379|   11.937722|
|         674|  3.7342e-01|    4.426815|    7.514012|    7.777943|   10.937637|
|         675|  3.7328e-01|    4.428531|    7.516807|    7.780037|   10.941022|
|         676|  3.7318e-01|    4.422489|    7.506012|    7.772896|   10.930350|
|         677|  3.7306e-01|    4.295756|    7.377316|    7.636816|   10.803963|
|         678|  3.7292e-01|    4.436941|    7.530051|    7.789761|   10.955068|
|         679|  3.7281e-01|    4.441479|    7.537175|    7.794977|   10.962537|
|         680|  3.7271e-01|    5.156760|    8.515334|    8.617375|   11.982902|
|         681|  3.7259e-01|    4.431019|    7.516412|    7.780858|   10.938861|
|         682|  3.7248e-01|    4.446902|    7.543047|    7.800334|   10.968009|
|         683|  3.7236e-01|    4.449475|    7.545842|    7.802957|   10.970826|
|         684|  3.7223e-01|    4.452140|    7.548752|    7.805665|   10.973737|
|         685|  3.7212e-01|    4.454794|    7.551518|    7.808381|   10.976576|
|         686|  3.7201e-01|    4.457591|    7.554456|    7.811224|   10.979549|
|         687|  3.7190e-01|    4.460513|    7.557501|    7.814181|   10.982617|
|         688|  3.7179e-01|    4.463545|    7.560632|    7.817242|   10.985768|
|         689|  3.7166e-01|    4.466735|    7.563940|    7.820444|   10.989062|
|         690|  3.7156e-01|    4.469967|    7.567186|    7.823704|   10.992351|
|         691|  3.7145e-01|    4.473376|    7.570625|    7.827126|   10.995802|
|         692|  3.7134e-01|    4.476928|    7.574196|    7.830685|   10.999376|
|         693|  3.7123e-01|    4.480650|    7.577916|    7.834406|   11.003096|
|         694|  3.7110e-01|    4.484544|    7.581835|    7.838290|   11.006988|
|         695|  3.7100e-01|    4.488586|    7.585809|    7.842332|   11.010982|
|         696|  3.7089e-01|    4.492791|    7.589981|    7.846532|   11.015150|
|         697|  3.7085e-01|    4.497778|    7.594751|    7.851358|   11.019816|
|         698|  3.7081e-01|    4.502233|    7.599175|    7.855844|   11.024274|
|         699|  3.7075e-01|    4.507166|    7.604025|    7.860745|   11.029103|
|         700|  3.7065e-01|    4.512218|    7.609018|    7.865792|   11.034092|
|         701|  3.7060e-01|    4.517591|    7.614309|    7.871141|   11.039366|
|         702|  3.7048e-01|    4.523171|    7.619812|    7.876708|   11.044862|
|         703|  3.7038e-01|    4.529040|    7.625591|    7.882556|   11.050628|
|         704|  3.7025e-01|    4.535193|    7.631654|    7.888690|   11.056679|
|         705|  3.7015e-01|    4.541638|    7.638000|    7.895115|   11.063015|
|         706|  3.7004e-01|    4.548406|    7.644667|    7.901861|   11.069668|
|         707|  3.6994e-01|    4.555518|    7.651685|    7.908947|   11.076664|
|         708|  3.6983e-01|    4.562935|    7.658978|    7.916344|   11.083954|
|         709|  3.6973e-01|    4.570735|    7.666659|    7.924120|   11.091624|
|         710|  3.6961e-01|    4.578917|    7.674721|    7.932275|   11.099671|
|         711|  3.6951e-01|    4.587493|    7.683172|    7.940825|   11.108108|
|         712|  3.6940e-01|    4.596485|    7.692034|    7.949790|   11.116957|
|         713|  3.6928e-01|    4.605913|    7.701329|    7.959190|   11.126237|
|         714|  3.6918e-01|    4.615797|    7.711076|    7.969045|   11.135970|
|         715|  3.6906e-01|    4.626160|    7.721299|    7.979379|   11.146179|
|         716|  3.6898e-01|    4.637024|    7.732020|    7.990214|   11.156888|
|         717|  3.6888e-01|    4.648393|    7.743257|    8.001583|   11.168140|
|         718|  3.6876e-01|    4.660514|    7.755181|    8.013652|   11.180050|
|         719|  3.6866e-01|    4.673178|    7.767656|    8.026268|   11.192512|
|         720|  3.6856e-01|    4.686365|    7.780677|    8.039417|   11.205521|
|         721|  3.6846e-01|    4.700138|    7.794297|    8.053157|   11.219130|
|         722|  3.6836e-01|    4.714550|    7.808563|    8.067540|   11.233387|
|         723|  3.6826e-01|    4.729639|    7.823511|    8.082602|   11.248329|
|         724|  3.6814e-01|    4.745434|    7.839173|    8.098374|   11.263985|
|         725|  3.6804e-01|    4.761954|    7.855570|    8.114874|   11.280378|
|         726|  3.6794e-01|    4.779884|    7.874133|    8.133051|   11.299225|
|         727|  3.6782e-01|    4.797850|    7.891932|    8.150986|   11.317013|
|         728|  3.6773e-01|    4.816676|    7.910622|    8.169792|   11.335702|
|         729|  3.6765e-01|    4.836403|    7.930226|    8.189506|   11.355311|
|         730|  3.6755e-01|    4.857064|    7.950762|    8.210156|   11.375859|
|         731|  3.6744e-01|    4.878711|    7.972282|    8.231792|   11.397393|
|         732|  3.6734e-01|    4.901388|    7.994821|    8.254454|   11.419951|
|         733|  3.6725e-01|    4.925085|    8.018391|    8.278144|   11.443542|
|         734|  3.6715e-01|    4.949914|    8.043074|    8.302961|   11.468251|
|         735|  3.6703e-01|    4.975870|    8.068884|    8.328907|   11.494092|
|         736|  3.6695e-01|    5.003023|    8.095887|    8.356051|   11.521129|
|         737|  3.6685e-01|    5.031413|    8.124119|    8.384434|   11.549403|
|         738|  3.6675e-01|    5.061097|    8.153639|    8.414112|   11.578971|
|         739|  3.6665e-01|    5.092127|    8.184501|    8.445140|   11.609889|
|         740|  3.6654e-01|    5.124560|    8.216759|    8.477573|   11.642212|
|         741|  3.6644e-01|    5.158451|    8.250463|    8.511466|   11.675989|
|         742|  3.6635e-01|    5.193867|    8.285685|    8.546886|   11.711289|
|         743|  3.6624e-01|    5.230870|    8.322479|    8.583894|   11.748173|
|         744|  3.6614e-01|    5.269520|    8.360913|    8.622552|   11.786703|
|         745|  3.6605e-01|    5.309877|    8.401044|    8.662920|   11.826938|
|         746|  3.6596e-01|    5.352002|    8.442933|    8.705059|   11.868940|
|         747|  3.6586e-01|    5.395958|    8.486638|    8.749030|   11.912766|
|         748|  3.6575e-01|    5.441795|    8.532206|    8.794884|   11.958463|
|         749|  3.6567e-01|    5.489585|    8.579711|    8.842693|   12.006105|
|         750|  3.6557e-01|    5.539386|    8.629209|    8.892515|   12.055752|
+-----------------------------------------------------------------------+
|        File Writing Summary       |              Filename             |
+-----------------------------------------------------------------------+
|SU2 binary restart                 |restart_flow.dat                   |
|Paraview                           |flow.vtu                           |
|CSV file                           |surface_flow.csv                   |
+-----------------------------------------------------------------------+
+-----------------------------------------------------------------------------+
|  Inner_Iter|   Time(sec)|    rms[Rho]|   rms[RhoU]|   rms[RhoV]|   rms[RhoE]|
+-----------------------------------------------------------------------------+
|         751|  3.6575e-01|    5.591258|    8.680759|    8.944410|   12.107458|
|         752|  3.6564e-01|    5.645258|    8.734415|    8.998434|   12.161281|
|         753|  3.6554e-01|    5.701443|    8.790233|    9.054647|   12.217277|
|         754|  3.6546e-01|    5.759874|    8.848271|    9.113107|   12.275505|
|         755|  3.6537e-01|    5.761259|    8.849726|    9.114515|   12.276973|
|         756|  3.6527e-01|    5.759826|    8.845465|    9.112425|   12.272506|
|         757|  3.6518e-01|    5.761417|    8.847186|    9.114058|   12.274251|
|         758|  3.6510e-01|    5.763085|    8.848988|    9.115769|   12.276079|
|         759|  3.6500e-01|    5.764833|    8.850876|    9.117561|   12.277993|
|         760|  3.6491e-01|    5.766664|    8.852852|    9.119439|   12.279997|
|         761|  3.6482e-01|    5.768583|    8.854922|    9.121406|   12.282095|
|         762|  3.6472e-01|    5.770594|    8.857088|    9.123467|   12.284292|
|         763|  3.6462e-01|    5.772701|    8.859356|    9.125625|   12.286590|
|         764|  3.6454e-01|    5.774908|    8.861729|    9.127885|   12.288996|
|         765|  3.6445e-01|    5.777218|    8.864209|    9.130249|   12.291509|
|         766|  3.6436e-01|    5.779631|    8.866794|    9.132717|   12.294128|
|         767|  3.6427e-01|    5.782161|    8.869501|    9.135303|   12.296870|
|         768|  3.6417e-01|    5.784810|    8.872333|    9.138011|   12.299739|
|         769|  3.6408e-01|    5.787586|    8.875299|    9.140848|   12.302743|
|         770|  3.6399e-01|    5.790494|    8.878402|    9.143818|   12.305886|
|         771|  3.6388e-01|    5.793540|    8.881650|    9.146929|   12.309175|
|         772|  3.6382e-01|    5.796731|    8.885048|    9.150186|   12.312616|
|         773|  3.6373e-01|    5.800075|    8.888604|    9.153597|   12.316214|
|         774|  3.6364e-01|    5.803579|    8.892324|    9.157169|   12.319978|
|         775|  3.6354e-01|    5.807253|    8.896219|    9.160911|   12.323916|
|         776|  3.6345e-01|    5.811105|    8.900296|    9.164831|   12.328034|
|         777|  3.6336e-01|    5.815128|    8.904555|    9.168928|   12.332342|
|         778|  3.6326e-01|    5.819334|    8.909005|    9.173214|   12.336846|
|         779|  3.6318e-01|    5.823737|    8.913655|    9.177698|   12.341552|
|         780|  3.6309e-01|    5.828346|    8.918515|    9.182389|   12.346469|
|         781|  3.6301e-01|    5.833170|    8.923594|    9.187296|   12.351605|
|         782|  3.6292e-01|    5.838219|    8.928899|    9.192429|   12.356970|
|         783|  3.6284e-01|    5.843502|    8.934441|    9.197798|   12.362572|
|         784|  3.6275e-01|    5.849031|    8.940229|    9.203412|   12.368422|
|         785|  3.6265e-01|    5.854816|    8.946273|    9.209283|   12.374528|
|         786|  3.6257e-01|    5.860867|    8.952583|    9.215420|   12.380901|
|         787|  3.6248e-01|    5.867198|    8.959170|    9.221837|   12.387551|
|         788|  3.6240e-01|    5.873821|    8.966044|    9.228544|   12.394488|
|         789|  3.6232e-01|    5.880746|    8.973217|    9.235553|   12.401724|
|         790|  3.6224e-01|    5.887989|    8.980701|    9.242877|   12.409270|
|         791|  3.6215e-01|    5.895560|    8.988504|    9.250528|   12.417134|
|         792|  3.6207e-01|    5.903475|    8.996639|    9.258519|   12.425328|
|         793|  3.6197e-01|    5.911745|    9.005115|    9.266861|   12.433861|
|         794|  3.6189e-01|    5.920384|    9.013941|    9.275566|   12.442741|
|         795|  3.6180e-01|    5.929404|    9.023127|    9.284646|   12.451976|
|         796|  3.6172e-01|    5.938820|    9.032682|    9.294114|   12.461576|
|         797|  3.6162e-01|    5.948647|    9.042618|    9.303985|   12.471551|
|         798|  3.6154e-01|    5.958903|    9.052953|    9.314275|   12.481919|
|         799|  3.6146e-01|    5.969610|    9.063708|    9.325007|   12.492700|
|         800|  3.6138e-01|    5.980792|    9.074911|    9.336206|   12.503924|
|         801|  3.6130e-01|    5.992476|    9.086590|    9.347900|   12.515620|
|         802|  3.6120e-01|    6.004690|    9.098779|    9.360118|   12.527821|
|         803|  3.6115e-01|    6.017461|    9.111507|    9.372889|   12.540559|
|         804|  3.6106e-01|    6.030819|    9.124805|    9.386241|   12.553864|
|         805|  3.6098e-01|    6.044790|    9.138701|    9.400202|   12.567765|
|         806|  3.6090e-01|    6.059402|    9.153225|    9.414802|   12.582293|
|         807|  3.6081e-01|    6.074686|    9.168407|    9.430070|   12.597476|
|         808|  3.6072e-01|    6.090672|    9.184278|    9.446037|   12.613348|
|         809|  3.6064e-01|    6.107393|    9.200871|    9.462737|   12.629942|
|         810|  3.6054e-01|    6.124882|    9.218223|    9.480203|   12.647294|
|         811|  3.6047e-01|    6.143177|    9.236371|    9.498474|   12.665445|
|         812|  3.6040e-01|    6.162314|    9.255355|    9.517588|   12.684433|
|         813|  3.6031e-01|    6.182329|    9.275213|    9.537581|   12.704300|
|         814|  3.6023e-01|    6.203266|    9.295986|    9.558498|   12.725086|
|         815|  3.6015e-01|    6.225170|    9.317722|    9.580382|   12.746840|
|         816|  3.6008e-01|    6.226509|    9.319109|    9.581738|   12.748239|
|         817|  3.6000e-01|    6.227914|    9.320563|    9.583159|   12.749706|
|         818|  3.5992e-01|    6.229388|    9.322088|    9.584651|   12.751245|
[...]
|        1346|  3.3415e-01|   10.455016|   13.550119|   13.814787|   16.985633|
|        1347|  3.3411e-01|   10.460994|   13.556099|   13.820771|   16.991622|
|        1348|  3.3409e-01|   10.467240|   13.562327|   13.827012|   16.997846|
|        1349|  3.3406e-01|   10.473773|   13.568831|   13.833534|   17.004336|
|        1350|  3.3403e-01|   10.480609|   13.575647|   13.840346|   17.011115|
|        1351|  3.3401e-01|   10.487748|   13.582754|   13.847453|   17.018174|
|        1352|  3.3398e-01|   10.496012|   13.591548|   13.856062|   17.027421|
|        1353|  3.3395e-01|   10.503520|   13.598997|   13.863538|   17.034827|
|        1354|  3.3391e-01|   10.511401|   13.606824|   13.871389|   17.042614|
|        1355|  3.3388e-01|   10.519671|   13.615045|   13.879632|   17.050797|
|        1356|  3.3386e-01|   10.528345|   13.623673|   13.888279|   17.059387|
|        1357|  3.3383e-01|   10.537437|   13.632721|   13.897344|   17.068395|
|        1358|  3.3380e-01|   10.546962|   13.642202|   13.906840|   17.077830|
|        1359|  3.3377e-01|   10.556935|   13.652127|   13.916779|   17.087703|
|        1360|  3.3374e-01|   10.567374|   13.662514|   13.927178|   17.098026|
|        1361|  3.3370e-01|   10.578286|   13.673364|   13.938039|   17.108794|
|        1362|  3.3367e-01|   10.589635|   13.684614|   13.949299|   17.119906|
|        1363|  3.3364e-01|   10.601419|   13.696256|   13.960950|   17.131343|
|        1364|  3.3360e-01|   10.613655|   13.708303|   13.973008|   17.143119|
|        1365|  3.3358e-01|   10.626349|   13.720752|   13.985472|   17.155223|
|        1366|  3.3355e-01|   10.639527|   13.733633|   13.998370|   17.167690|
|        1367|  3.3352e-01|   10.653198|   13.746951|   14.011708|   17.180519|
|        1368|  3.3349e-01|   10.667393|   13.760738|   14.025520|   17.193750|
|        1369|  3.3346e-01|   10.682155|   13.775045|   14.039855|   17.207443|
|        1370|  3.3343e-01|   10.697525|   13.789921|   14.054761|   17.221660|
|        1371|  3.3341e-01|   10.713548|   13.805418|   14.070291|   17.236462|
|        1372|  3.3338e-01|   10.730270|   13.821588|   14.086495|   17.251909|
|        1373|  3.3335e-01|   10.749317|   13.840788|   14.105487|   17.270873|
|        1374|  3.3333e-01|   10.767981|   13.858828|   14.123555|   17.288075|
|        1375|  3.3330e-01|   10.787534|   13.877773|   14.142522|   17.306200|
|        1376|  3.3326e-01|   10.820510|   13.917548|   14.179931|   17.351264|
|        1377|  3.3324e-01|   10.841639|   13.938509|   14.200709|   17.371551|
|        1378|  3.3321e-01|   10.863641|   13.960319|   14.222328|   17.392657|
|        1379|  3.3317e-01|   10.865561|   13.962625|   14.224481|   17.395251|
|        1380|  3.3314e-01|   10.866960|   13.964028|   14.225883|   17.396659|
|        1381|  3.3312e-01|   10.868429|   13.965500|   14.227354|   17.398137|
|        1382|  3.3309e-01|   10.869970|   13.967046|   14.228899|   17.399688|
|        1383|  3.3305e-01|   10.871330|   13.968399|   14.230238|   17.401062|
|        1384|  3.3304e-01|   10.872703|   13.969730|   14.231574|   17.402386|
|        1385|  3.3300e-01|   10.874057|   13.971005|   14.232870|   17.403632|
|        1386|  3.3299e-01|   10.875364|   13.972191|   14.234094|   17.404764|
|        1387|  3.3296e-01|   10.876594|   13.973256|   14.235214|   17.405751|
|        1388|  3.3295e-01|   10.877737|   13.974196|   14.236227|   17.406603|
|        1389|  3.3292e-01|   10.878818|   13.975069|   14.237175|   17.407399|
|        1390|  3.3290e-01|   10.879903|   13.975986|   14.238161|   17.408296|
|        1391|  3.3287e-01|   10.881216|   13.977273|   14.239481|   17.409704|
|        1392|  3.3284e-01|   10.883145|   13.979462|   14.241621|   17.412246|
|        1393|  3.3282e-01|   10.886285|   13.983305|   14.245399|   17.416977|
|        1394|  3.3279e-01|   10.890737|   13.988829|   14.250570|   17.423307|
|        1395|  3.3277e-01|   10.895419|   13.994497|   14.255844|   17.429572|
|        1396|  3.3275e-01|   10.899307|   13.999009|   14.260066|   17.434400|
|        1397|  3.3271e-01|   10.900479|   14.000226|   14.261224|   17.435601|
|        1398|  3.3269e-01|   10.904390|   14.004127|   14.265084|   17.439383|
|        1399|  3.3266e-01|   10.906050|   14.005743|   14.266802|   17.441144|
|        1400|  3.3264e-01|   10.908848|   14.008541|   14.269601|   17.443940|
|        1401|  3.3261e-01|   10.911785|   14.011477|   14.272538|   17.446874|
|        1402|  3.3259e-01|   10.914867|   14.014558|   14.275620|   17.449953|
|        1403|  3.3256e-01|   10.918102|   14.017791|   14.278855|   17.453184|
|        1404|  3.3255e-01|   10.921496|   14.021185|   14.282250|   17.456576|
|        1405|  3.3252e-01|   10.925058|   14.024745|   14.285812|   17.460134|
|        1406|  3.3250e-01|   10.928795|   14.028481|   14.289550|   17.463868|
|        1407|  3.3248e-01|   10.932718|   14.032402|   14.293473|   17.467787|
|        1408|  3.3245e-01|   10.936833|   14.036516|   14.297589|   17.471898|
|        1409|  3.3243e-01|   10.941152|   14.040832|   14.301908|   17.476212|
|        1410|  3.3241e-01|   10.945683|   14.045361|   14.306440|   17.480739|
|        1411|  3.3239e-01|   10.950437|   14.050114|   14.311195|   17.485489|
|        1412|  3.3236e-01|   10.955425|   14.055100|   14.316183|   17.490473|
|        1413|  3.3233e-01|   10.960659|   14.060331|   14.321418|   17.495701|
|        1414|  3.3232e-01|   10.967084|   14.066674|   14.327794|   17.501957|
|        1415|  3.3230e-01|   10.972961|   14.072692|   14.333791|   17.508140|
|        1416|  3.3228e-01|   10.838551|   13.957094|   14.206312|   17.398415|
|        1417|  3.3225e-01|   10.838776|   13.946395|   14.208779|   17.398358|
|        1418|  3.3223e-01|   10.945080|   14.045973|   14.302404|   17.475539|
|        1419|  3.3221e-01|   10.949419|   14.050338|   14.303978|   17.475223|
|        1420|  3.3218e-01|   10.971894|   14.072323|   14.327080|   17.498214|
|        1421|  3.3216e-01|   10.981026|   14.079623|   14.335980|   17.505968|
|        1422|  3.3213e-01|   10.996035|   14.094243|   14.352212|   17.522752|
|        1423|  3.3210e-01|   11.013365|   14.112268|   14.371367|   17.543463|
|        1424|  3.3208e-01|   11.026454|   14.125704|   14.385339|   17.558212|
|        1425|  3.3205e-01|   11.036225|   14.135473|   14.395105|   17.567968|
|        1426|  3.3202e-01|   11.046470|   14.145716|   14.405345|   17.578198|
|        1427|  3.3199e-01|   11.057212|   14.156455|   14.416080|   17.588924|
|        1428|  3.3197e-01|   11.068472|   14.167712|   14.427335|   17.600168|
|        1429|  3.3193e-01|   11.080276|   14.179514|   14.439134|   17.611957|
|        1430|  3.3191e-01|   11.092649|   14.191884|   14.451502|   17.624314|
|        1431|  3.3188e-01|   11.105619|   14.204851|   14.464466|   17.637268|
|        1432|  3.3185e-01|   11.119211|   14.218441|   14.478054|   17.650845|
|        1433|  3.3183e-01|   11.133456|   14.232683|   14.492293|   17.665075|
|        1434|  3.3180e-01|   11.148383|   14.247608|   14.507215|   17.679987|
|        1435|  3.3177e-01|   11.164024|   14.263246|   14.522851|   17.695613|
|        1436|  3.3174e-01|   11.180410|   14.279630|   14.539232|   17.711985|
|        1437|  3.3172e-01|   11.197577|   14.296795|   14.556393|   17.729138|
|        1438|  3.3171e-01|   11.215561|   14.314777|   14.574371|   17.747108|
|        1439|  3.3170e-01|   11.234398|   14.333613|   14.593204|   17.765932|
|        1440|  3.3167e-01|   11.254128|   14.353342|   14.612929|   17.785651|
|        1441|  3.3164e-01|   11.274793|   14.374004|   14.633589|   17.806304|
|        1442|  3.3162e-01|   11.296433|   14.395641|   14.655226|   17.827934|
|        1443|  3.3159e-01|   11.319095|   14.418298|   14.677883|   17.850584|
|        1444|  3.3157e-01|   11.342822|   14.442020|   14.701607|   17.874300|
|        1445|  3.3155e-01|   11.367662|   14.466854|   14.726445|   17.899130|
|        1446|  3.3151e-01|   11.368734|   14.467926|   14.727516|   17.900201|
|        1447|  3.3150e-01|   11.370993|   14.470265|   14.730058|   17.902996|
|        1448|  3.3146e-01|   11.372075|   14.471338|   14.731190|   17.904174|
|        1449|  3.3144e-01|   11.373195|   14.472399|   14.732359|   17.905355|
|        1450|  3.3142e-01|   11.374352|   14.473436|   14.733574|   17.906547|
|        1451|  3.3138e-01|   11.375574|   14.474550|   14.734848|   17.907799|
|        1452|  3.3136e-01|   11.378168|   14.477446|   14.737529|   17.910703|
|        1453|  3.3133e-01|   11.379595|   14.478860|   14.738945|   17.912109|
|        1454|  3.3130e-01|   11.381081|   14.480282|   14.740418|   17.913536|
|        1455|  3.3128e-01|   11.382625|   14.481703|   14.741945|   17.914979|
|        1456|  3.3124e-01|   11.384265|   14.483228|   14.743567|   17.916526|
|        1457|  3.3122e-01|   11.386000|   14.484856|   14.745284|   17.918173|
|        1458|  3.3120e-01|   11.387830|   14.486584|   14.747095|   17.919919|
|        1459|  3.3117e-01|   11.389752|   14.488407|   14.748999|   17.921759|
|        1460|  3.3114e-01|   11.393925|   14.493095|   14.753287|   17.926398|
|        1461|  3.3111e-01|   11.396143|   14.495189|   14.755492|   17.928522|
|        1462|  3.3108e-01|   11.398494|   14.497425|   14.757829|   17.930787|
|        1463|  3.3106e-01|   11.400979|   14.499802|   14.760299|   17.933190|
|        1464|  3.3102e-01|   11.403599|   14.502320|   14.762903|   17.935730|
|        1465|  3.3100e-01|   11.406356|   14.504977|   14.765643|   17.938409|
|        1466|  3.3098e-01|   11.409251|   14.507776|   14.768518|   17.941224|
|        1467|  3.3094e-01|   11.414809|   14.513785|   14.774201|   17.947210|
|        1468|  3.3092e-01|   11.418136|   14.517007|   14.777519|   17.950464|
|        1469|  3.3090e-01|   11.421649|   14.520419|   14.781020|   17.953905|
|        1470|  3.3087e-01|   11.425350|   14.524024|   14.784708|   17.957534|
|        1471|  3.3084e-01|   11.429244|   14.527824|   14.788586|   17.961355|
|        1472|  3.3082e-01|   11.433335|   14.531823|   14.792658|   17.965371|
|        1473|  3.3080e-01|   11.437625|   14.536021|   14.796927|   17.969583|
|        1474|  3.3077e-01|   11.445043|   14.543895|   14.804471|   17.977423|
|        1475|  3.3074e-01|   11.449932|   14.548689|   14.809349|   17.982243|
|        1476|  3.3072e-01|   11.455083|   14.553750|   14.814488|   17.987327|
|        1477|  3.3069e-01|   11.460504|   14.559083|   14.819894|   17.992679|
|        1478|  3.3067e-01|   11.466203|   14.564696|   14.825575|   17.998308|
|        1479|  3.3064e-01|   11.472191|   14.570599|   14.831542|   18.004222|
|        1480|  3.3061e-01|   11.478526|   14.576861|   14.837860|   18.010492|
|        1481|  3.3058e-01|   11.488096|   14.586839|   14.847544|   18.020433|
|        1482|  3.3056e-01|   11.495936|   14.594775|   14.855398|   18.028341|
|        1483|  3.3053e-01|   11.504035|   14.602970|   14.863507|   18.036504|
|        1484|  3.3050e-01|   11.512534|   14.611586|   14.872021|   18.045089|
|        1485|  3.3048e-01|   11.521156|   14.620288|   14.880652|   18.053768|
|        1486|  3.3045e-01|   11.529712|   14.628856|   14.889204|   18.062311|
|        1487|  3.3044e-01|   11.538482|   14.637647|   14.897972|   18.071082|
|        1488|  3.3044e-01|   11.547325|   14.646522|   14.906782|   18.079882|
|        1489|  3.3043e-01|   11.556414|   14.655665|   14.915863|   18.088995|
|        1490|  3.3043e-01|   11.565791|   14.665157|   14.925234|   18.098454|
|        1491|  3.3041e-01|   11.575308|   14.674714|   14.934748|   18.108002|
|        1492|  3.3039e-01|   11.584851|   14.684219|   14.944290|   18.117502|
|        1493|  3.3038e-01|   11.595161|   14.694500|   14.954597|   18.127777|
|        1494|  3.3045e-01|   11.606468|   14.705861|   14.965904|   18.139126|
|        1495|  3.3048e-01|   11.617828|   14.717192|   14.977261|   18.150450|
|        1496|  3.3045e-01|   11.630252|   14.729653|   14.989687|   18.162906|
|        1497|  3.3042e-01|   11.642774|   14.742148|   15.002208|   18.175396|
|        1498|  3.3040e-01|   11.656261|   14.755613|   15.015693|   18.188853|
|        1499|  3.3037e-01|   11.670958|   14.770352|   15.030392|   18.203586|
|        1500|  3.3035e-01|   11.685757|   14.785129|   15.045190|   18.218356|
+-----------------------------------------------------------------------+
|        File Writing Summary       |              Filename             |
+-----------------------------------------------------------------------+
|SU2 binary restart                 |restart_flow.dat                   |
|Paraview                           |flow.vtu                           |
|CSV file                           |surface_flow.csv                   |
+-----------------------------------------------------------------------+
+-----------------------------------------------------------------------------+
|  Inner_Iter|   Time(sec)|    rms[Rho]|   rms[RhoU]|   rms[RhoV]|   rms[RhoE]|
+-----------------------------------------------------------------------------+
|        1501|  3.3045e-01|   11.701843|   14.801247|   15.061277|   18.234469|
|        1502|  3.3043e-01|   11.718367|   14.817747|   15.077802|   18.250964|
|        1503|  3.3040e-01|   11.736153|   14.835517|   15.095588|   18.268729|
|        1504|  3.3037e-01|   11.755313|   14.854711|   15.114752|   18.287920|
|        1505|  3.3035e-01|   11.774703|   14.874084|   15.134144|   18.307288|
|        1506|  3.3033e-01|   11.795422|   14.894790|   15.154862|   18.327989|
|        1507|  3.3031e-01|   11.817699|   14.917103|   15.177142|   18.350297|
|        1508|  3.3029e-01|   11.840172|   14.939560|   15.199617|   18.372751|
|        1509|  3.3025e-01|   11.864343|   14.963723|   15.223788|   18.396911|
|        1510|  3.3024e-01|   11.890278|   14.989695|   15.249725|   18.422877|
|        1511|  3.3021e-01|   11.891417|   14.990817|   15.250862|   18.423999|
|        1512|  3.3019e-01|   11.892636|   14.992022|   15.252080|   18.425204|
|        1513|  3.3016e-01|   11.893945|   14.993325|   15.253387|   18.426506|
|        1514|  3.3013e-01|   11.895345|   14.994721|   15.254783|   18.427900|
|        1515|  3.3011e-01|   11.896794|   14.996134|   15.256225|   18.429316|
|        1516|  3.3009e-01|   11.898344|   14.997642|   15.257769|   18.430830|
|        1517|  3.3006e-01|   11.899978|   14.999234|   15.259397|   18.432429|
|        1518|  3.3002e-01|   11.901689|   15.000897|   15.261099|   18.434100|
|        1519|  3.3001e-01|   11.903462|   15.002612|   15.262862|   18.435826|
|        1520|  3.2998e-01|   11.905273|   15.004350|   15.264660|   18.437578|
|        1521|  3.2996e-01|   11.907080|   15.006056|   15.266450|   18.439304|
|        1522|  3.2994e-01|   11.908810|   15.007635|   15.268154|   18.440915|
|        1523|  3.2992e-01|   11.910369|   15.008965|   15.269675|   18.442295|
|        1524|  3.2988e-01|   11.911943|   15.010252|   15.271204|   18.443650|
|        1525|  3.2986e-01|   11.915878|   15.014353|   15.275178|   18.447724|
|        1526|  3.2984e-01|   11.921385|   15.020489|   15.280776|   18.453708|
|        1527|  3.2981e-01|   11.924375|   15.023408|   15.283756|   18.456643|
|        1528|  3.2980e-01|   11.927869|   15.026881|   15.287249|   18.460122|
|        1529|  3.2977e-01|   11.931474|   15.030438|   15.290845|   18.463689|
|        1530|  3.2974e-01|   11.936445|   15.035705|   15.295856|   18.468887|
|        1531|  3.2972e-01|   11.940340|   15.039543|   15.299744|   18.472737|
|        1532|  3.2970e-01|   11.944491|   15.043654|   15.303891|   18.476857|
|        1533|  3.2967e-01|   11.948727|   15.047846|   15.308120|   18.481058|
|        1534|  3.2965e-01|   11.953202|   15.052278|   15.312589|   18.485498|
|        1535|  3.2962e-01|   11.958806|   15.058118|   15.318223|   18.491286|
|        1536|  3.2960e-01|   11.963642|   15.062904|   15.323054|   18.496082|
|        1537|  3.2956e-01|   11.968659|   15.067874|   15.328065|   18.501061|
|        1538|  3.2954e-01|   11.973859|   15.073030|   15.333258|   18.506226|
|        1539|  3.2951e-01|   11.979356|   15.078488|   15.338749|   18.511691|
|        1540|  3.2949e-01|   11.985885|   15.085218|   15.345304|   18.518379|
|        1541|  3.2947e-01|   11.991765|   15.091049|   15.351178|   18.524218|
|        1542|  3.2944e-01|   11.997984|   15.097218|   15.357391|   18.530396|
|        1543|  3.2942e-01|   12.004427|   15.103616|   15.363828|   18.536803|
|        1544|  3.2940e-01|   12.011242|   15.110391|   15.370637|   18.543585|
|        1545|  3.2936e-01|   12.018576|   15.117734|   15.377971|   18.550925|
|        1546|  3.2934e-01|   12.026809|   15.126144|   15.386227|   18.559297|
|        1547|  3.2932e-01|   12.034464|   15.133755|   15.393877|   18.566916|
|        1548|  3.2929e-01|   12.042652|   15.141907|   15.402062|   18.575076|
|        1549|  3.2927e-01|   12.050742|   15.149886|   15.410133|   18.583074|
|        1550|  3.2924e-01|   12.059194|   15.158268|   15.418576|   18.591474|
|        1551|  3.2922e-01|   12.068101|   15.167104|   15.427474|   18.600328|
|        1552|  3.2920e-01|   12.077483|   15.176416|   15.436846|   18.609657|
|        1553|  3.2917e-01|   12.088518|   15.187724|   15.447912|   18.620892|
|        1554|  3.2915e-01|   12.098726|   15.197862|   15.458113|   18.631048|
|        1555|  3.2912e-01|   12.109503|   15.208570|   15.468883|   18.641774|
|        1556|  3.2910e-01|   12.120867|   15.219866|   15.480239|   18.653089|
|        1557|  3.2906e-01|   12.132909|   15.231862|   15.492275|   18.665098|
|        1558|  3.2905e-01|   12.146950|   15.246246|   15.506356|   18.679389|
|        1559|  3.2902e-01|   12.159976|   15.259233|   15.519382|   18.692390|
|        1560|  3.2899e-01|   12.173356|   15.272572|   15.532758|   18.705739|
|        1561|  3.2898e-01|   12.187502|   15.286682|   15.546902|   18.719859|
|        1562|  3.2895e-01|   12.202467|   15.301627|   15.561864|   18.734810|
|        1563|  3.2892e-01|   12.218828|   15.318166|   15.578242|   18.751301|
|        1564|  3.2890e-01|   12.234803|   15.334112|   15.594217|   18.767255|
|        1565|  3.2888e-01|   12.250217|   15.349323|   15.609601|   18.782515|
|        1566|  3.2885e-01|   12.266580|   15.365572|   15.625959|   18.798806|
|        1567|  3.2884e-01|   12.284994|   15.384192|   15.644401|   18.817366|
|        1568|  3.2881e-01|   12.303622|   15.402981|   15.663041|   18.836111|
|        1569|  3.2878e-01|   12.321749|   15.421059|   15.681163|   18.854199|
|        1570|  3.2876e-01|   12.340077|   15.439337|   15.699489|   18.872493|
|        1571|  3.2874e-01|   12.359441|   15.458654|   15.718851|   18.891827|
|        1572|  3.2871e-01|   12.379862|   15.479031|   15.739270|   18.912222|
|        1573|  3.2869e-01|   12.401370|   15.500501|   15.760776|   18.933707|
|        1574|  3.2868e-01|   12.268526|   15.407573|   15.630217|   18.823921|
|        1575|  3.2865e-01|   12.272310|   15.422140|   15.634262|   18.833631|
|        1576|  3.2863e-01|   12.280940|   15.458416|   15.643434|   18.858117|
|        1577|  3.2861e-01|   12.307666|   15.565805|   15.671442|   18.938214|
|        1578|  3.2858e-01|   12.419351|   15.870624|   15.785744|   19.224525|
|        1579|  3.2856e-01|   12.643748|   16.245997|   16.011247|   19.638036|
|        1580|  3.2854e-01|   12.825716|   16.413429|   16.193072|   19.807338|
|        1581|  3.2852e-01|   12.962505|   16.568239|   16.329689|   19.974703|


Error in "void CSolver::SetResidual_RMS(const CGeometry*, const CConfig*)": 
-------------------------------------------------------------------------
SU2 has diverged (Residual > 10^20 detected).
------------------------------ Error Exit -------------------------------



Total elapsed: 0:08:42
