
-------------------------------------------------------------------------
|    ___ _   _ ___                                                      |
|   / __| | | |_  )   Release 8.3.0 "Harrier"                           |
|   \__ \ |_| |/ /                                                      |
|   |___/\___//___|   Suite (Computational Fluid Dynamics Code)         |
|                                                                       |
-------------------------------------------------------------------------
| SU2 Project Website: https://su2code.github.io                        |
|                                                                       |
| The SU2 Project is maintained by the SU2 Foundation                   |
| (http://su2foundation.org)                                            |
-------------------------------------------------------------------------
| Copyright 2012-2025, SU2 Contributors                                 |
|                                                                       |
| SU2 is free software; you can redistribute it and/or                  |
| modify it under the terms of the GNU Lesser General Public            |
| License as published by the Free Software Foundation; either          |
| version 2.1 of the License, or (at your option) any later version.    |
|                                                                       |
| SU2 is distributed in the hope that it will be useful,                |
| but WITHOUT ANY WARRANTY; without even the implied warranty of        |
| MERCHANTABILITY or FITNESS FOR A PARTICULAR PURPOSE. See the GNU      |
| Lesser General Public License for more details.                       |
|                                                                       |
| You should have received a copy of the GNU Lesser General Public      |
| License along with SU2. If not, see <http://www.gnu.org/licenses/>.   |
-------------------------------------------------------------------------

Parsing config file for zone 0

----------------- Physical Case Definition ( Zone 0 ) -------------------
Compressible Laminar Navier-Stokes' equations.
Mach number: 0.3.
Angle of attack (AoA): 0 deg, and angle of sideslip (AoS): 0 deg.
Reynolds number: 89810. Reference length 0.166667.
No restart solution, use the values at infinity (freestream).
Dimensional simulation.
The reference area is 0.0833333 ft^2.
The semi-span will be computed using the max y(3D) value.
The reference length is 0.166667 ft.
Input mesh file name: swirler_n6_c2_AoA10_NACA8412.su2

--------------- Space Numerical Integration ( Zone 0 ) ------------------
Roe (with entropy fix = 0.1) solver for the flow inviscid terms.
Standard Roe without low-dissipation function.
Second order integration in space, with slope limiter.
Venkatakrishnan slope-limiting method, with constant: 0.05.
The reference element size is: 3.28084. 
Average of gradients with correction (viscous flow terms).
Gradient for upwind reconstruction: inverse-distance weighted Least-Squares.
Gradient for viscous and source terms: inverse-distance weighted Least-Squares.

--------------- Time Numerical Integration  ( Zone 0 ) ------------------
Local time stepping (steady state simulation).
Euler implicit method for the flow equations.
FGMRES is used for solving the linear system.
Using a ILU(0) preconditioning.
Convergence criteria of the linear solver: 0.0001.
Max number of linear iterations: 60.
CFL adaptation. Factor down: 0.5, factor up: 1.2,
                lower limit: 0.1, upper limit: 10,
                acceptable linear residual: 0.001'
                starting iteration: 50.
Courant-Friedrichs-Lewy number:      0.5

------------------ Convergence Criteria  ( Zone 0 ) ---------------------
Maximum number of solver subiterations: 3000.
Begin convergence monitoring at iteration 10.
Residual minimum value: 1e-8.
Cauchy series min. value: 1e-06.
Number of Cauchy elements: 100.
Begin windowed time average at iteration 0.

-------------------- Output Information ( Zone 0 ) ----------------------
File writing frequency: 
+------------------------------------+
|                     File| Frequency|
+------------------------------------+
|                  RESTART|       250|
|                 PARAVIEW|       250|
|              SURFACE_CSV|       250|
+------------------------------------+
Writing the convergence history file every 1 inner iterations.
Writing the screen convergence history every 1 inner iterations.
The tabular file format is CSV (.csv).
Convergence history file name: history.
Forces breakdown file name: forces_breakdown.dat.
Surface file name: surface_flow.
Volume file name: flow.
Restart file name: restart_flow.

------------- Config File Boundary Information ( Zone 0 ) ---------------
+-----------------------------------------------------------------------+
|                        Marker Type|                        Marker Name|
+-----------------------------------------------------------------------+
|                  Periodic boundary|                          Symmetry2|
|                                   |                          Symmetry1|
+-----------------------------------------------------------------------+
|                     Inlet boundary|                              Inlet|
+-----------------------------------------------------------------------+
|                    Outlet boundary|                             Outlet|
+-----------------------------------------------------------------------+
|                     Heat flux wall|                           Airfoils|
+-----------------------------------------------------------------------+

-------------------- Output Preprocessing ( Zone 0 ) --------------------

WARNING: SURFACE_PRESSURE_DROP can only be computed for at least 2 surfaces (outlet, inlet, ...)

Screen output fields: INNER_ITER, WALL_TIME, RMS_DENSITY, RMS_MOMENTUM-X, RMS_MOMENTUM-Y, RMS_ENERGY
History output group(s): ITER, RMS_RES
Convergence field(s): RMS_DENSITY
Warning: No (valid) fields chosen for time convergence monitoring. Time convergence monitoring inactive.
Volume output fields: COORDINATES, SOLUTION, PRIMITIVE

------------------- Geometry Preprocessing ( Zone 0 ) -------------------
Two dimensional problem.
118454 grid points.
235164 volume elements.
5 surface markers.
1188 boundary elements in index 0 (Marker = Airfoils).
63 boundary elements in index 1 (Marker = Inlet).
220 boundary elements in index 2 (Marker = Symmetry1).
220 boundary elements in index 3 (Marker = Symmetry2).
63 boundary elements in index 4 (Marker = Outlet).
235164 triangles.
Setting point connectivity.
Renumbering points (Reverse Cuthill McKee Ordering).
Recomputing point connectivity.
Setting element connectivity.
Checking the numerical grid orientation.
All volume elements are correctly oriented.
All surface elements are correctly oriented.
Identifying edges and vertices.
Setting the control volume structure.
Area of the computational grid: 0.95648.
Searching for the closest normal neighbors to the surfaces.
Storing a mapping from global to local point index.
Compute the surface curvature.
Max K: 90341.5. Mean K: 342.579. Standard deviation K: 5268.16.
Checking for periodicity.
Computing mesh quality statistics for the dual control volumes.
+--------------------------------------------------------------+
|           Mesh Quality Metric|        Minimum|        Maximum|
+--------------------------------------------------------------+
|    Orthogonality Angle (deg.)|        73.5946|        89.5571|
|     CV Face Area Aspect Ratio|        1.00005|        12.6932|
|           CV Sub-Volume Ratio|              1|        10.8599|
+--------------------------------------------------------------+
Finding max control volume width.
Wetted area = 0 ft.
Area projection in the x-plane = 0 ft, y-plane = 0 ft.
Max. coordinate in the x-direction = -1e+10 ft, y-direction = -1e+10 ft.
Min. coordinate in the x-direction = 1e+10 ft, y-direction = 1e+10 ft.
Matching the periodic boundary points for marker pair 1.
 Matched 442 points with a max distance of: 0.
Computing wall distances.

-------------------- Solver Preprocessing ( Zone 0 ) --------------------
Viscous flow: Computing pressure using the ideal gas law
based on the free-stream temperature and a density computed
from the Reynolds number.
Force coefficients computed using free-stream values.

-- Models:
+------------------------------------------------------------------------------+
|          Viscosity Model|        Conductivity Model|              Fluid Model|
+------------------------------------------------------------------------------+
|               SUTHERLAND|          CONSTANT_PRANDTL|             STANDARD_AIR|
+------------------------------------------------------------------------------+
-- Fluid properties:
+------------------------------------------------------------------------------+
|                  Name|    Dim. value|    Ref. value|      Unit|Non-dim. value|
+------------------------------------------------------------------------------+
|        Ref. Viscosity|     3.737e-07|             1|lbf.s/ft^2|     3.737e-07|
|      Sutherland Temp.|        518.67|             1|         R|        518.67|
|     Sutherland Const.|        198.72|             1|         R|        198.72|
+------------------------------------------------------------------------------+
|        Prandtl (Lam.)|             -|             -|         -|          0.72|
|       Prandtl (Turb.)|             -|             -|         -|           0.9|
+------------------------------------------------------------------------------+
|          Gas Constant|       1716.49|             1|lbf.ft/slug.R|       1716.49|
|      Spec. Heat Ratio|             -|             -|         -|           1.4|
+------------------------------------------------------------------------------+
-- Initial and free-stream conditions:
+------------------------------------------------------------------------------+
|                  Name|    Dim. value|    Ref. value|      Unit|Non-dim. value|
+------------------------------------------------------------------------------+
|       Static Pressure|       2116.19|             1|       psf|       2116.19|
|               Density|   0.000742687|             1| slug/ft^3|   0.000742687|
|           Temperature|          1660|             1|         R|          1660|
|          Total Energy|   7.30294e+06|             1|  ft^2/s^2|   7.30294e+06|
|            Velocity-X|       599.184|             1|      ft/s|       599.184|
|            Velocity-Y|             0|             1|      ft/s|             0|
|    Velocity Magnitude|       599.184|             1|      ft/s|       599.184|
+------------------------------------------------------------------------------+
|             Viscosity|   8.25829e-07|             1|lbf.s/ft^2|   8.25829e-07|
|          Conductivity|             -|             1|lbf/ft.s.R|             -|
+------------------------------------------------------------------------------+
|           Mach Number|             -|             -|         -|           0.3|
|       Reynolds Number|             -|             -|         -|         89810|
+------------------------------------------------------------------------------+
Initialize Jacobian structure (Navier-Stokes). MG level: 0.

------------------- Numerics Preprocessing ( Zone 0 ) -------------------

----------------- Integration Preprocessing ( Zone 0 ) ------------------

------------------- Iteration Preprocessing ( Zone 0 ) ------------------
Euler/Navier-Stokes/RANS fluid iteration.

------------------------------ Begin Solver -----------------------------

Simulation Run using the Single-zone Driver
WARNING: SU2 was not compiled for an AVX-capable architecture. Performance could be better,
         see https://su2code.github.io/docs_v7/Build-SU2-Linux-MacOS/#compiler-optimizations
+-----------------------------------------------------------------------------+
|  Inner_Iter|   Time(sec)|    rms[Rho]|   rms[RhoU]|   rms[RhoV]|   rms[RhoE]|
+-----------------------------------------------------------------------------+
|           0|  4.7100e-01|   -4.943351|   -2.532598|    0.181346|    2.064321|
|           1|  4.1100e-01|   -4.219893|   -1.374949|    0.158143|    2.780414|
|           2|  3.8067e-01|   -3.948773|   -1.116422|    0.139544|    3.044094|
|           3|  3.6600e-01|   -3.806935|   -0.961444|    0.125636|    3.177901|
|           4|  3.5640e-01|   -3.721600|   -0.864880|    0.114947|    3.255969|
|           5|  3.4950e-01|   -3.671494|   -0.812689|    0.106616|    3.299442|
|           6|  3.4729e-01|   -3.633205|   -0.771326|    0.099402|    3.331427|
|           7|  3.4388e-01|   -3.609404|   -0.745630|    0.093007|    3.349768|
|           8|  3.4100e-01|   -3.596318|   -0.732652|    0.087270|    3.358611|
|           9|  3.3930e-01|   -3.582508|   -0.716886|    0.081487|    3.368130|
|          10|  3.3682e-01|   -3.581547|   -0.717343|    0.076368|    3.366405|
|          11|  3.3742e-01|   -3.578242|   -0.713632|    0.071050|    3.367188|
|          12|  3.3623e-01|   -3.582938|   -0.721246|    0.066112|    3.360904|
|          13|  3.3486e-01|   -3.585435|   -0.723371|    0.061864|    3.357220|
|          14|  3.3373e-01|   -3.589597|   -0.730186|    0.057401|    3.352554|
|          15|  3.3263e-01|   -3.591202|   -0.731901|    0.053935|    3.350182|
|          16|  3.3271e-01|   -3.594116|   -0.736866|    0.050266|    3.347086|
|          17|  3.3217e-01|   -3.596899|   -0.740765|    0.047306|    3.344317|
|          18|  3.3153e-01|   -3.602122|   -0.748214|    0.044658|    3.339664|
|          19|  3.3055e-01|   -3.605495|   -0.752880|    0.042765|    3.336957|
|          20|  3.2971e-01|   -3.608734|   -0.757447|    0.041275|    3.334477|
|          21|  3.2909e-01|   -3.612617|   -0.764004|    0.040196|    3.332526|
|          22|  3.2861e-01|   -3.614834|   -0.768426|    0.039704|    3.331739|
|          23|  3.2883e-01|   -3.615942|   -0.771260|    0.039618|    3.331836|
|          24|  3.2944e-01|   -3.616784|   -0.774866|    0.039916|    3.332134|
|          25|  3.2927e-01|   -3.619188|   -0.779201|    0.040885|    3.331405|
|          26|  3.2881e-01|   -3.621120|   -0.783662|    0.041873|    3.331246|
|          27|  3.2893e-01|   -3.618948|   -0.781870|    0.043075|    3.334528|
|          28|  3.2928e-01|   -3.616415|   -0.779703|    0.044196|    3.337971|
|          29|  3.2870e-01|   -3.615847|   -0.779907|    0.045689|    3.339591|
|          30|  3.2832e-01|   -3.614246|   -0.779426|    0.047089|    3.342583|
|          31|  3.2797e-01|   -3.612145|   -0.778383|    0.048785|    3.345529|
|          32|  3.2770e-01|   -3.611424|   -0.780239|    0.050443|    3.347350|
|          33|  3.2741e-01|   -3.610542|   -0.781448|    0.052192|    3.349116|
|          34|  3.2757e-01|   -3.607600|   -0.780758|    0.053803|    3.352715|
|          35|  3.2689e-01|   -3.605073|   -0.780611|    0.055321|    3.355790|
|          36|  3.2703e-01|   -3.603341|   -0.780974|    0.056780|    3.358250|
|          37|  3.2679e-01|   -3.600728|   -0.780536|    0.058173|    3.361562|
|          38|  3.2656e-01|   -3.598374|   -0.779785|    0.059532|    3.364378|
|          39|  3.2630e-01|   -3.596961|   -0.780179|    0.060853|    3.366527|
|          40|  3.2646e-01|   -3.595001|   -0.779597|    0.062184|    3.369039|
|          41|  3.2631e-01|   -3.592829|   -0.778575|    0.063499|    3.371724|
|          42|  3.2574e-01|   -3.590509|   -0.776742|    0.064917|    3.374475|
|          43|  3.2591e-01|   -3.587751|   -0.773404|    0.066480|    3.377693|
|          44|  3.2573e-01|   -3.585188|   -0.769501|    0.067792|    3.380523|
|          45|  3.2546e-01|   -3.581925|   -0.763566|    0.069179|    3.383897|
|          46|  3.2526e-01|   -3.579130|   -0.757381|    0.070693|    3.386913|
|          47|  3.2523e-01|   -3.575567|   -0.749845|    0.072085|    3.390473|
|          48|  3.2504e-01|   -3.572394|   -0.742469|    0.073432|    3.393731|
|          49|  3.2510e-01|   -3.568878|   -0.734717|    0.074774|    3.397218|
|          50|  3.2524e-01|   -3.565967|   -0.728921|    0.075875|    3.400146|
|          51|  3.2506e-01|   -3.564307|   -0.719546|    0.076143|    3.401665|
|          52|  3.2517e-01|   -3.561038|   -0.711347|    0.077341|    3.404846|
|          53|  3.2498e-01|   -3.557885|   -0.703323|    0.078491|    3.407859|
|          54|  3.2482e-01|   -3.553903|   -0.691829|    0.079845|    3.411533|
|          55|  3.2493e-01|   -3.551741|   -0.684322|    0.081216|    3.413465|
|          56|  3.2484e-01|   -3.547698|   -0.673178|    0.083956|    3.417074|
|          57|  3.2524e-01|   -3.542812|   -0.660369|    0.088566|    3.421222|
|          58|  3.2615e-01|   -3.536291|   -0.642921|    0.097326|    3.426726|
|          59|  3.2678e-01|   -3.530692|   -0.621710|    0.108146|    3.430521|
|          60|  3.2767e-01|   -3.528273|   -0.594326|    0.117983|    3.433707|
|          61|  3.3206e-01|   -3.517624|   -0.530827|    0.134626|    3.457377|
|          62|  3.3483e-01|   -3.446924|   -0.408579|    0.192506|    3.534776|
|          63|  3.5478e-01|   -3.375357|   -0.265250|    0.266743|    3.638329|
|          64|  3.6425e-01|   -3.302696|   -0.127683|    0.320971|    3.742862|
|          65|  3.7214e-01|   -3.275423|   -0.063027|    0.340379|    3.815265|
|          66|  3.8187e-01|   -3.244657|    0.031544|    0.379637|    3.865778|
|          67|  3.9440e-01|   -3.183596|    0.114700|    0.406427|    3.840367|
|          68|  3.9993e-01|   -3.138391|    0.085013|    0.441474|    3.990510|
|          69|  4.1034e-01|   -3.091952|    0.068528|    0.521046|    3.965289|
|          70|  4.1461e-01|   -3.029932|    0.091540|    0.570719|    4.017111|
|          71|  4.1690e-01|   -2.908593|    0.159666|    0.704199|    4.152518|
|          72|  4.2948e-01|   -3.046264|    0.244076|    0.566735|    4.099782|
|          73|  4.3436e-01|   -2.973609|    0.237811|    0.656881|    4.179338|
|          74|  4.3815e-01|   -2.916912|    0.337059|    0.726467|    4.247781|
|          75|  4.4774e-01|   -2.840675|    0.542220|    0.789856|    4.325681|
|          76|  4.5862e-01|   -2.897254|    0.385791|    0.751178|    4.279037|
|          77|  4.6713e-01|   -2.775938|    0.501166|    0.851600|    4.356060|
|          78|  4.7496e-01|   -2.627317|    0.661381|    0.976012|    4.465710|
|          79|  4.7458e-01|   -2.605442|    0.701261|    0.995579|    4.489342|
|          80|  4.7674e-01|   -2.618189|    0.698485|    0.980172|    4.484860|
|          81|  4.8173e-01|   -2.577519|    0.770488|    1.034605|    4.536799|
|          82|  4.8704e-01|   -2.097625|    0.910476|    1.227133|    4.578990|
|          83|  4.9042e-01|   -1.967218|    1.036490|    1.339471|    4.627825|
|          84|  4.9453e-01|   -1.899626|    1.090687|    1.460952|    4.796103|
|          85|  4.9386e-01|   -1.872821|    1.137178|    1.421889|    4.721561|
|          86|  4.9836e-01|   -2.371256|    1.296560|    1.243772|    4.994852|
|          87|  4.9960e-01|   -2.226083|    1.357326|    1.373218|    5.062768|
|          88|  5.0182e-01|   -2.491302|    1.191194|    1.162623|    4.902588|
|          89|  5.0298e-01|   -2.428849|    1.083937|    1.251634|    4.868995|
|          90|  5.0504e-01|   -2.465091|    1.070156|    1.184135|    4.844498|
|          91|  5.0662e-01|   -2.426387|    1.087240|    1.233178|    4.872573|
|          92|  5.0645e-01|   -2.298822|    1.306578|    1.393536|    5.047926|
|          93|  5.0662e-01|   -1.831293|    1.288005|    1.635949|    5.015118|
|          94|  5.0712e-01|   -1.996852|    1.191396|    1.533926|    4.960861|
|          95|  5.0832e-01|   -2.294585|    1.223491|    1.342029|    4.976199|
|          96|  5.1113e-01|   -2.518492|    1.220211|    1.182822|    4.947989|
|          97|  5.1084e-01|   -1.924598|    1.853591|    1.746070|    5.528976|
|          98|  5.1049e-01|   -1.931446|    1.771997|    1.672624|    5.394889|
|          99|  5.1188e-01|   -1.933426|    1.813130|    1.692856|    5.434921|
|         100|  5.1509e-01|   -1.912067|    1.805581|    1.715209|    5.443979|
|         101|  5.1316e-01|   -2.046717|    1.683442|    1.559518|    5.318415|
|         102|  5.1141e-01|   -2.048563|    1.537364|    1.570436|    5.183880|
|         103|  5.0968e-01|   -1.993223|    1.572406|    1.626649|    5.229409|
|         104|  5.0800e-01|   -1.991334|    1.524725|    1.636769|    5.208239|
|         105|  5.0591e-01|   -0.576253|    3.095039|    3.057583|    6.731947|
|         106|  5.0370e-01|   -1.600938|    1.980276|    2.040690|    5.629107|
|         107|  5.0169e-01|   -1.313878|    2.308474|    2.324630|    5.948254|
|         108|  4.9970e-01|   -0.818098|    2.873360|    2.822210|    6.516802|
|         109|  4.9775e-01|   -0.631013|    3.059815|    3.010959|    6.704618|
|         110|  4.9584e-01|   -0.577603|    3.112696|    3.065001|    6.758029|
|         111|  4.9402e-01|   -0.613631|    3.075793|    3.029171|    6.721302|
|         112|  4.9227e-01|   -1.178072|    2.511460|    2.464349|    6.157218|
|         113|  4.9032e-01|   -1.167659|    2.522875|    2.475799|    6.169701|
|         114|  4.8853e-01|   -1.261354|    2.428589|    2.382408|    6.075936|
|         115|  4.8722e-01|   -1.296311|    2.396226|    2.310602|    6.013069|
|         116|  4.8575e-01|   -1.575101|    2.113992|    2.044577|    5.743453|
|         117|  4.8445e-01|   -1.590201|    2.097863|    2.009037|    5.794899|
|         118|  4.8303e-01|   -1.575507|    2.110355|    2.027680|    5.983677|
|         119|  4.8164e-01|   -1.550211|    2.126277|    2.064352|    5.797698|
|         120|  4.8027e-01|   -1.519198|    2.154951|    2.104658|    5.790604|
|         121|  4.7893e-01|   -1.568254|    2.097231|    2.085962|    5.759975|
|         122|  4.7773e-01|   -1.711049|    1.924027|    1.975147|    5.621333|
|         123|  4.7642e-01|   -1.744092|    1.792890|    1.932054|    5.523177|
|         124|  4.7541e-01|   -1.812909|    1.707400|    1.878613|    5.477651|
|         125|  4.7477e-01|   -1.902698|    1.575246|    1.807797|    5.497082|
|         126|  4.7390e-01|   -1.986136|    1.411691|    1.730321|    5.476207|
|         127|  4.7292e-01|   -1.931344|    1.498863|    1.767312|    5.366883|
|         128|  4.7244e-01|   -1.644136|    1.876607|    2.034571|    5.674731|
|         129|  4.7221e-01|   -1.830192|    1.815796|    2.112114|    6.409256|
|         130|  4.7246e-01|   -1.207447|    2.434728|    2.502999|    6.651148|
|         131|  4.7267e-01|   -1.707538|    2.011733|    2.304769|    6.672528|
|         132|  4.7236e-01|   -1.739456|    2.035432|    2.298799|    6.702587|
|         133|  4.7215e-01|   -1.637055|    2.069468|    2.277997|    6.660586|
|         134|  4.7380e-01|   -1.813433|    1.944008|    2.139979|    6.570434|
|         135|  4.7974e-01|   -1.900393|    1.799525|    1.992115|    6.399272|
|         136|  4.8168e-01|   -1.907441|    1.652581|    1.867838|    6.176232|
|         137|  4.8163e-01|   -0.671770|    2.843854|    3.023912|    6.588548|
|         138|  4.8249e-01|   -0.629762|    2.530877|    3.122123|    6.607707|
|         139|  4.8186e-01|   -0.859090|    2.129310|    2.922182|    6.432921|
|         140|  4.8180e-01|   -1.383570|    1.670352|    2.147839|    5.864995|
|         141|  4.8186e-01|   -1.405883|    1.652983|    2.119811|    5.934641|
|         142|  4.8216e-01|   -1.024058|    2.378254|    2.729858|    6.325948|
|         143|  4.8156e-01|   -1.131950|    1.928257|    2.661218|    6.278894|
|         144|  4.8207e-01|   -1.519958|    1.792353|    2.074985|    6.121622|
|         145|  4.8147e-01|   -1.535012|    1.759904|    2.047309|    6.168772|
|         146|  4.8251e-01|   -1.408626|    1.963417|    2.208598|    6.191982|
|         147|  4.8268e-01|   -1.587090|    1.742764|    1.969244|    6.201031|
|         148|  4.8252e-01|   -1.540662|    1.906132|    2.066997|    6.229944|
|         149|  4.8193e-01|   -1.677900|    1.741039|    1.937258|    6.279869|
|         150|  4.8189e-01|   -1.433029|    1.852985|    2.359233|    6.343128|
|         151|  4.8350e-01|   -1.087769|    2.233217|    2.553456|    6.370208|
|         152|  4.8654e-01|   -0.606410|    2.834285|    2.997479|    6.537864|
|         153|  4.8797e-01|   -1.689394|    1.828546|    1.994765|    6.371697|
|         154|  4.8788e-01|   -1.626011|    1.873393|    2.056779|    6.350189|
|         155|  4.8809e-01|   -1.651579|    1.857652|    2.056987|    6.573067|
|         156|  4.8750e-01|   -1.517806|    1.968551|    2.170557|    6.547175|
|         157|  4.8762e-01|   -1.179757|    2.179325|    2.316454|    6.706385|
|         158|  4.8714e-01|   -1.536392|    2.029924|    2.251762|    6.789012|
|         159|  4.8723e-01|   -1.443513|    1.993285|    2.437499|    6.954381|
|         160|  4.8666e-01|   -1.299646|    1.954258|    2.632830|    7.038181|
|         161|  4.8727e-01|   -1.244500|    2.001764|    2.762964|    7.186408|
|         162|  4.8660e-01|   -1.178175|    1.974357|    2.847016|    7.216091|
|         163|  4.8585e-01|   -1.039906|    2.270639|    2.885492|    6.897777|
|         164|  4.8606e-01|   -1.332976|    2.160716|    2.450428|    6.260396|
|         165|  4.8599e-01|   -1.485941|    2.040659|    2.284320|    6.261897|
|         166|  4.8600e-01|   -1.378371|    2.143787|    2.342129|    6.196745|
|         167|  4.8615e-01|   -1.155247|    2.298407|    2.482419|    6.151568|
|         168|  4.8662e-01|   -1.235756|    2.225313|    2.414751|    6.156202|
|         169|  4.8756e-01|   -1.305739|    2.189831|    2.355646|    6.134092|
|         170|  4.8777e-01|   -1.304770|    2.205356|    2.338385|    6.085455|
|         171|  4.8751e-01|   -1.277400|    2.348422|    2.438835|    6.061831|
|         172|  4.8697e-01|   -1.205027|    2.575993|    2.481967|    6.679409|
|         173|  4.8645e-01|   -1.236996|    2.757727|    2.438707|    6.963966|
|         174|  4.8664e-01|   -1.292850|    2.262035|    2.385038|    6.343363|
|         175|  4.8630e-01|   -1.251828|    2.283408|    2.447127|    6.246681|
|         176|  4.8623e-01|   -1.488806|    2.143437|    2.322419|    6.191455|
|         177|  4.8607e-01|   -1.598738|    2.039305|    2.171235|    6.145604|
|         178|  4.8672e-01|   -1.037136|    2.516899|    2.487211|    6.219962|
|         179|  4.8621e-01|   -1.003996|    2.536701|    2.644255|    6.346413|
|         180|  4.8578e-01|   -1.039858|    2.563557|    2.510448|    6.397230|
|         181|  4.8615e-01|   -0.937358|    2.611183|    2.627688|    6.312036|
|         182|  4.8734e-01|   -0.931111|    2.627126|    2.572748|    6.227304|
|         183|  4.8753e-01|   -0.921256|    2.657368|    2.595800|    6.470049|
|         184|  4.8703e-01|   -0.898876|    3.216926|    2.668592|    7.805928|
|         185|  4.8645e-01|   -0.412919|    3.194431|    3.158246|    7.100958|
|         186|  4.8572e-01|   -1.039597|    2.483328|    2.612018|    6.311811|
|         187|  4.8506e-01|   -0.637292|    2.965862|    3.035250|    6.656165|
|         188|  4.8416e-01|   -0.972402|    2.580246|    2.662287|    6.242455|
|         189|  4.8336e-01|   -0.919542|    2.665076|    2.640657|    6.262605|
|         190|  4.8249e-01|   -0.867328|    2.727724|    2.653993|    6.294671|
|         191|  4.8162e-01|   -0.694259|    2.872514|    2.818674|    6.525648|
|         192|  4.8076e-01|   -0.598312|    2.941657|    2.928795|    6.533243|
|         193|  4.8040e-01|   -0.353465|    3.223758|    3.142283|    6.748183|
|         194|  4.7964e-01|   -1.137165|    2.501045|    2.436037|    6.163498|
|         195|  4.7876e-01|   -0.613858|    3.004892|    3.070745|    6.701784|
|         196|  4.7801e-01|   -0.659922|    2.960752|    3.040979|    6.688711|
|         197|  4.7734e-01|   -0.559615|    3.091929|    3.005594|    6.683262|
|         198|  4.7653e-01|   -0.649353|    2.826502|    2.963764|    6.507959|
|         199|  4.7581e-01|   -0.703155|    2.759162|    2.885031|    6.413526|
|         200|  4.7508e-01|   -0.787818|    2.679784|    2.788035|    6.338737|
|         201|  4.7430e-01|   -0.914612|    2.599845|    2.665654|    6.290879|
|         202|  4.7360e-01|   -1.023850|    2.553636|    2.596608|    6.325200|
|         203|  4.7282e-01|   -1.046031|    2.500753|    2.568273|    6.295713|
|         204|  4.7207e-01|   -1.044855|    2.716140|    2.592333|    7.010780|
|         205|  4.7139e-01|   -1.037453|    2.510021|    2.595962|    6.395379|
|         206|  4.7071e-01|   -1.026023|    2.477720|    2.618624|    6.370001|
|         207|  4.6996e-01|   -1.015582|    2.498330|    2.624080|    6.452702|
|         208|  4.6930e-01|   -1.004085|    2.563898|    2.647777|    6.518758|
|         209|  4.6857e-01|   -0.996492|    2.576839|    2.672516|    6.575027|
|         210|  4.6782e-01|   -0.991623|    2.599175|    2.663052|    6.622850|
|         211|  4.6718e-01|   -0.989796|    2.591821|    2.673263|    6.637933|
|         212|  4.6647e-01|   -0.979229|    2.531367|    2.676708|    6.436651|
|         213|  4.6578e-01|   -0.964312|    2.535134|    2.683866|    6.322294|
|         214|  4.6509e-01|   -0.973592|    2.535619|    2.677936|    6.307677|
|         215|  4.6440e-01|   -0.978169|    2.541208|    2.686073|    6.357121|
|         216|  4.6371e-01|   -0.939656|    2.583803|    2.718335|    6.356901|
|         217|  4.6302e-01|   -0.703333|    2.823708|    2.936469|    6.595341|
|         218|  4.6242e-01|   -0.017980|    3.088530|    3.714315|    7.171090|
|         219|  4.6176e-01|   -0.538494|    2.698078|    3.189501|    6.673087|
|         220|  4.6110e-01|   -0.952445|    2.500210|    2.693566|    6.274250|
|         221|  4.6052e-01|   -0.987913|    2.475653|    2.661899|    6.347180|
|         222|  4.5987e-01|   -0.989335|    2.472498|    2.658334|    6.255274|
|         223|  4.5930e-01|    0.179637|    3.383872|    3.916538|    7.388728|
|         224|  4.5873e-01|   -1.007303|    2.462944|    2.630617|    6.248464|
|         225|  4.5817e-01|   -1.013966|    2.455489|    2.622890|    6.246507|
|         226|  4.5754e-01|   -0.784110|    2.570570|    2.923427|    6.460427|
|         227|  4.5698e-01|   -1.013106|    2.451968|    2.627074|    6.275155|
|         228|  4.5643e-01|    0.423949|    3.806786|    4.158472|    7.670657|
|         229|  4.5569e-01|    0.430645|    3.892784|    4.165201|    7.707766|
|         230|  4.5509e-01|   -0.408368|    2.926395|    3.323398|    6.833274|
|         231|  4.5456e-01|   -0.369710|    3.302586|    3.594548|    7.378005|
|         232|  4.5403e-01|   -0.495067|    3.191505|    3.454713|    7.234284|
|         233|  4.5344e-01|   -0.671906|    2.987544|    3.228230|    6.986086|
|         234|  4.5292e-01|   -0.914743|    2.629081|    2.857327|    6.590365|
|         235|  4.5234e-01|   -0.903544|    2.640096|    2.874203|    6.613525|
|         236|  4.5182e-01|   -0.634613|    2.816176|    3.027702|    6.662672|
|         237|  4.5125e-01|   -0.471793|    2.949218|    3.172776|    6.734605|
|         238|  4.5068e-01|   -0.484361|    2.933208|    3.167669|    6.727060|
|         239|  4.5012e-01|   -0.753769|    2.755589|    2.964078|    6.629615|
|         240|  4.4963e-01|   -0.859982|    2.646300|    2.882094|    6.584979|
|         241|  4.4907e-01|   -0.941030|    2.501608|    2.694242|    6.268700|
|         242|  4.4876e-01|   -0.900892|    2.587924|    2.746939|    6.351164|
|         243|  4.4824e-01|   -0.095738|    3.397147|    3.505602|    7.017748|
|         244|  4.4776e-01|   -0.070049|    3.420454|    3.561385|    7.078858|
|         245|  4.4723e-01|    0.437409|    3.931273|    4.023494|    7.531479|
|         246|  4.4696e-01|   -0.325991|    3.168051|    3.299087|    6.992212|
|         247|  4.4643e-01|   -0.631241|    2.860058|    3.126509|    7.272856|
|         248|  4.4623e-01|   -0.753721|    2.719707|    3.118893|    7.419330|
|         249|  4.4577e-01|   -0.775132|    2.679330|    3.115506|    7.429768|
|         250|  4.4545e-01|   -0.805749|    2.647402|    3.053506|    7.261505|
+-----------------------------------------------------------------------+
|        File Writing Summary       |              Filename             |
+-----------------------------------------------------------------------+
|SU2 binary restart                 |restart_flow.dat                   |
|Paraview                           |flow.vtu                           |
|CSV file                           |surface_flow.csv                   |
+-----------------------------------------------------------------------+
+-----------------------------------------------------------------------------+
|  Inner_Iter|   Time(sec)|    rms[Rho]|   rms[RhoU]|   rms[RhoV]|   rms[RhoE]|
+-----------------------------------------------------------------------------+
|         251|  4.4694e-01|   -0.800479|    2.651364|    3.061114|    7.276079|
|         252|  4.4700e-01|   -0.695462|    2.732815|    3.115619|    7.288656|
|         253|  4.4698e-01|   -0.687332|    2.741697|    3.122793|    7.290175|
|         254|  4.4678e-01|   -0.668661|    2.764651|    3.143812|    7.297471|
|         255|  4.4671e-01|   -0.719222|    2.702193|    3.114481|    7.304293|
|         256|  4.4669e-01|   -0.628949|    2.831347|    3.201734|    7.323574|
|         257|  4.4654e-01|   -0.665160|    2.880487|    3.189824|    7.337726|
|         258|  4.4641e-01|   -0.667083|    2.734715|    3.174772|    7.337970|
|         259|  4.4628e-01|   -0.639629|    2.743971|    3.190094|    7.346984|
|         260|  4.4602e-01|   -0.701926|    2.692378|    3.139920|    7.353398|
|         261|  4.4615e-01|   -0.700735|    2.700967|    3.143067|    7.363384|
|         262|  4.4611e-01|   -0.667525|    2.803371|    3.199942|    7.379865|
|         263|  4.4609e-01|   -0.716404|    2.725966|    3.176301|    7.416619|
|         264|  4.4594e-01|   -1.028215|    2.476663|    3.090887|    7.398429|
|         265|  4.4595e-01|   -0.316874|    3.034921|    3.256574|    7.411212|
|         266|  4.4624e-01|   -0.217138|    3.095516|    3.278823|    7.418555|
|         267|  4.4675e-01|   -0.235514|    3.082166|    3.260807|    7.435580|
|         268|  4.4656e-01|   -0.275363|    3.041061|    3.214161|    7.440129|
|         269|  4.4648e-01|   -0.402661|    2.945209|    3.137567|    7.349261|
|         270|  4.4665e-01|   -0.397029|    2.945577|    3.273597|    7.596405|
|         271|  4.4675e-01|   -0.300294|    3.086246|    3.342231|    7.426035|
|         272|  4.4667e-01|   -0.260734|    3.244280|    3.492547|    7.575648|
|         273|  4.4649e-01|   -0.221614|    3.424164|    3.562596|    7.477098|
|         274|  4.4664e-01|   -0.198726|    3.555000|    3.617173|    7.625934|
|         275|  4.4645e-01|    0.037837|    3.674812|    3.654511|    7.590755|
|         276|  4.4644e-01|    1.219678|    4.387509|    5.029480|    8.563472|
|         277|  4.4599e-01|    1.088710|    4.261871|    4.915298|    8.463806|
|         278|  4.4556e-01|    1.053371|    4.365978|    4.880511|    8.465780|
|         279|  4.4510e-01|    0.977754|    4.406317|    4.804245|    8.397302|
|         280|  4.4464e-01|    0.909253|    4.421295|    4.736277|    8.357924|
|         281|  4.4421e-01|    0.884587|    4.454037|    4.711789|    8.357559|
|         282|  4.4378e-01|    0.891550|    4.499763|    4.719162|    8.384049|
|         283|  4.4333e-01|   -0.306898|    3.360267|    3.533106|    7.740408|
|         284|  4.4289e-01|   -0.458804|    3.138646|    3.286645|    7.596477|
|         285|  4.4250e-01|   -0.349695|    3.125513|    3.267980|    7.458041|
|         286|  4.4206e-01|   -0.429774|    3.045945|    3.205170|    7.391117|
|         287|  4.4162e-01|   -0.190832|    3.255731|    3.786710|    7.782343|
|         288|  4.4118e-01|   -0.261600|    3.182807|    3.319594|    7.581801|
|         289|  4.4081e-01|   -0.258524|    3.189452|    3.267258|    7.425940|
|         290|  4.4038e-01|   -0.296161|    3.170845|    3.246634|    7.389375|
|         291|  4.3995e-01|   -0.287668|    3.185847|    3.234015|    7.379867|
|         292|  4.3953e-01|   -0.284122|    3.196824|    3.235151|    7.378811|
|         293|  4.3911e-01|   -0.261901|    3.231766|    3.235684|    7.371475|
|         294|  4.3907e-01|   -0.270412|    3.280320|    3.283263|    7.441954|
|         295|  4.3883e-01|   -0.284325|    3.410948|    3.366667|    7.634968|
|         296|  4.3851e-01|   -0.283741|    3.308124|    3.291474|    7.610280|
|         297|  4.3830e-01|   -0.267701|    3.310246|    3.311273|    7.598551|
|         298|  4.3800e-01|   -0.257376|    3.317020|    3.349522|    7.615911|
|         299|  4.3775e-01|   -0.194174|    3.414317|    3.398756|    7.586214|
|         300|  4.3776e-01|    0.005577|    3.463979|    3.756137|    8.112519|
|         301|  4.3746e-01|    0.550908|    3.972223|    4.181681|    7.953852|
|         302|  4.3738e-01|    0.722843|    4.143040|    4.353705|    7.950524|
|         303|  4.3724e-01|    0.678461|    4.099321|    4.308576|    7.875312|
|         304|  4.3715e-01|    0.542715|    3.961885|    4.174709|    7.748975|
|         305|  4.3701e-01|    0.313458|    3.734910|    3.943458|    7.586234|
|         306|  4.3687e-01|    0.057838|    3.539040|    3.730454|    7.858659|
|         307|  4.3679e-01|    0.217978|    3.671526|    3.872496|    7.742545|
|         308|  4.3696e-01|    0.066914|    3.606503|    3.711027|    7.679284|
|         309|  4.3714e-01|    0.019880|    3.553159|    3.653048|    7.608121|
|         310|  4.3710e-01|   -0.026017|    3.487170|    3.603072|    7.556268|
|         311|  4.3712e-01|   -0.084655|    3.409505|    3.535545|    7.495909|
|         312|  4.3754e-01|   -0.142558|    3.336949|    3.490137|    7.472601|
|         313|  4.3751e-01|   -0.174274|    3.530346|    3.505991|    7.962482|
|         314|  4.3812e-01|   -0.190594|    3.448357|    3.474708|    7.843993|
|         315|  4.3844e-01|   -0.216969|    3.321092|    3.433529|    7.540543|
|         316|  4.3867e-01|   -0.219018|    3.294630|    3.436241|    7.477256|
|         317|  4.3863e-01|   -0.107793|    3.429610|    3.530100|    7.504536|
|         318|  4.3889e-01|   -0.164286|    3.359863|    3.441635|    7.482229|
|         319|  4.3915e-01|   -0.134882|    3.403690|    3.963107|    8.168853|
|         320|  4.3930e-01|   -0.167939|    3.369415|    3.437925|    7.552096|
|         321|  4.3941e-01|   -0.151744|    3.362827|    3.434450|    7.490848|
|         322|  4.3952e-01|   -0.161440|    3.344262|    3.446106|    7.462265|
|         323|  4.4046e-01|   -0.170752|    3.347463|    3.477195|    7.545797|
|         324|  4.4046e-01|   -0.168048|    3.467925|    3.501204|    7.690181|
|         325|  4.4057e-01|   -0.162586|    3.374853|    3.560437|    7.646807|
|         326|  4.4058e-01|   -0.126016|    3.399867|    3.572259|    7.605723|
|         327|  4.4059e-01|   -0.135443|    3.393102|    3.576196|    7.612176|
|         328|  4.4069e-01|   -0.145790|    3.389870|    3.562031|    7.613380|
|         329|  4.4079e-01|   -0.155288|    3.404852|    3.526588|    7.640585|
|         330|  4.4079e-01|   -0.158532|    3.364897|    3.530030|    7.587548|
|         331|  4.4075e-01|   -0.153203|    3.396563|    3.528839|    7.627260|
|         332|  4.4151e-01|   -0.165217|    3.407318|    3.477346|    7.656451|
|         333|  4.4152e-01|   -0.137572|    3.429517|    3.503041|    7.641477|
|         334|  4.4157e-01|   -0.157844|    3.721356|    3.684196|    8.463238|
|         335|  4.4247e-01|   -0.154065|    3.456203|    3.547420|    7.763309|
|         336|  4.4252e-01|   -0.145667|    3.460100|    3.506067|    7.769544|
|         337|  4.4238e-01|    0.545220|    3.959362|    4.167476|    8.049797|
|         338|  4.4233e-01|    0.027145|    3.705069|    3.696701|    8.031477|
|         339|  4.4233e-01|   -0.146566|    3.517950|    3.533433|    7.818756|
|         340|  4.4214e-01|   -0.071698|    4.214297|    3.941315|    8.578769|
|         341|  4.4214e-01|   -0.158346|    3.565520|    3.536405|    7.889067|
|         342|  4.4219e-01|   -0.135302|    3.552670|    3.538406|    7.840234|
|         343|  4.4224e-01|   -0.124263|    3.551439|    3.605959|    7.910656|
|         344|  4.4261e-01|   -0.128026|    3.617294|    3.561291|    7.912446|
|         345|  4.4256e-01|   -0.060945|    3.528791|    3.601394|    7.883174|
|         346|  4.4270e-01|   -0.133685|    3.653806|    3.569714|    8.135893|
|         347|  4.4284e-01|   -0.134902|    3.567710|    3.552176|    8.421466|
|         348|  4.4270e-01|   -0.128155|    3.538226|    3.557818|    8.363486|
|         349|  4.4292e-01|   -0.065876|    3.530768|    3.605263|    8.344975|
|         350|  4.4283e-01|   -0.007483|    3.604606|    3.691325|    8.337860|
|         351|  4.4269e-01|    0.046781|    3.617922|    3.694292|    8.322488|
|         352|  4.4269e-01|    0.114442|    3.647087|    3.748674|    8.305030|
|         353|  4.4256e-01|    0.183537|    3.676385|    3.811087|    8.279375|
|         354|  4.4265e-01|    0.255021|    3.730814|    3.875373|    8.258917|
|         355|  4.4287e-01|    0.328688|    3.795348|    3.944082|    8.339903|
|         356|  4.4282e-01|    0.404515|    3.888959|    4.020488|    8.332958|
|         357|  4.4287e-01|    0.486549|    3.986376|    4.108760|    8.336774|
|         358|  4.4309e-01|    0.585234|    4.175239|    4.217702|    8.358474|
|         359|  4.4319e-01|    0.655106|    4.215126|    4.285451|    8.359166|
|         360|  4.4312e-01|    0.733052|    4.282876|    4.362494|    8.433502|
|         361|  4.4299e-01|    0.816179|    4.333359|    4.432953|    8.578157|
|         362|  4.4304e-01|    0.808341|    4.336278|    4.430012|    8.570460|
|         363|  4.4290e-01|    1.126454|    4.583642|    4.740491|    8.600065|
|         364|  4.4269e-01|    0.879034|    4.381062|    4.500616|    8.559384|
|         365|  4.4312e-01|    0.944613|    4.429154|    4.565704|    8.555434|
|         366|  4.4291e-01|    1.022254|    4.489750|    4.643033|    8.658156|
|         367|  4.4265e-01|    1.105123|    4.551341|    4.715708|    8.671849|
|         368|  4.4235e-01|    1.166170|    4.594273|    4.762388|    8.606715|
|         369|  4.4202e-01|    1.211779|    4.641381|    4.788663|    8.390820|
|         370|  4.4172e-01|    1.257919|    4.717347|    4.843504|    8.417030|
|         371|  4.4142e-01|    1.284353|    4.770845|    4.839164|    8.407855|
|         372|  4.4109e-01|    1.344115|    4.862122|    4.840488|    8.428308|
|         373|  4.4080e-01|    1.394097|    4.925569|    4.847100|    8.449727|
|         374|  4.4051e-01|    1.345242|    4.958883|    4.862718|    8.531713|
|         375|  4.4020e-01|    1.322385|    4.969255|    4.870244|    8.582490|
|         376|  4.3989e-01|    1.353920|    5.195077|    4.989161|    9.322174|
|         377|  4.3956e-01|    1.305212|    5.172434|    5.001336|    9.347113|
|         378|  4.3924e-01|    1.292566|    5.161542|    5.008498|    9.366619|
|         379|  4.3895e-01|    1.303121|    5.165585|    5.015184|    9.367901|
|         380|  4.3867e-01|    1.308644|    5.155288|    5.021271|    9.367713|
|         381|  4.3836e-01|    1.323199|    5.160427|    5.030231|    9.369296|
|         382|  4.3804e-01|    1.339509|    5.157362|    5.041408|    9.369123|
|         383|  4.3780e-01|    1.365757|    5.163538|    5.065141|    9.373207|
|         384|  4.3752e-01|    1.385511|    5.162052|    5.072276|    9.369494|
|         385|  4.3719e-01|    1.414683|    5.171985|    5.094415|    9.370733|
|         386|  4.3691e-01|    1.447501|    5.182615|    5.119643|    9.371950|
|         387|  4.3660e-01|    1.486026|    5.188662|    5.148303|    9.372264|
|         388|  4.3629e-01|    1.532062|    5.204951|    5.187633|    9.374274|
|         389|  4.3603e-01|    1.585658|    5.219132|    5.231651|    9.375517|
|         390|  4.3572e-01|    1.651673|    5.248097|    5.290533|    9.378888|
|         391|  4.3541e-01|    1.723821|    5.284610|    5.356782|    9.383509|
|         392|  4.3519e-01|    1.801301|    5.330610|    5.429198|    9.390207|
|         393|  4.3489e-01|    1.878391|    5.383261|    5.503231|    9.399892|
|         394|  4.3479e-01|    1.955761|    5.443327|    5.578540|    9.414234|
|         395|  4.3449e-01|    2.034338|    5.506175|    5.654533|    9.418369|
|         396|  4.3419e-01|    2.111724|    5.570324|    5.730448|    9.443827|
|         397|  4.3393e-01|    2.190934|    5.662694|    5.810803|    9.591594|
|         398|  4.3364e-01|    2.200213|    5.669510|    5.820075|    9.593220|
|         399|  4.3339e-01|    2.211012|    5.678176|    5.830913|    9.595960|
|         400|  4.3310e-01|    2.223571|    5.688222|    5.843342|    9.599042|
|         401|  4.3286e-01|    2.240879|    5.703047|    5.860651|    9.603878|
|         402|  4.3257e-01|    2.261191|    5.720331|    5.880805|    9.609651|
|         403|  4.3228e-01|    2.285947|    5.741899|    5.905384|    9.617396|
|         404|  4.3203e-01|    2.317234|    5.770058|    5.936062|    9.627974|
|         405|  4.3174e-01|    2.353245|    5.802969|    5.971421|    9.641406|
|         406|  4.3148e-01|    2.394563|    5.841370|    6.012179|    9.658646|
|         407|  4.3122e-01|    2.441971|    5.886320|    6.059015|    9.681065|
|         408|  4.3101e-01|    2.493624|    5.934947|    6.110543|    9.708185|
|         409|  4.3073e-01|    2.556949|    5.996775|    6.173240|    9.746107|
|         410|  4.3045e-01|    2.626695|    6.064427|    6.243113|    9.792592|
|         411|  4.3022e-01|    2.705965|    6.143569|    6.321705|    9.851633|
|         412|  4.2994e-01|    2.783006|    6.219621|    6.399158|    9.914046|
|         413|  4.2970e-01|    2.791721|    6.227795|    6.407858|    9.920840|
|         414|  4.2947e-01|    2.802511|    6.238413|    6.418858|    9.930502|
|         415|  4.2920e-01|    2.815686|    6.251024|    6.432454|    9.941728|
|         416|  4.2894e-01|    2.832259|    6.267393|    6.449182|    9.955949|
|         417|  4.2870e-01|    2.852481|    6.287031|    6.469498|    9.973150|
|         418|  4.2844e-01|    2.877023|    6.311065|    6.494239|    9.994642|
|         419|  4.2821e-01|    2.909091|    6.343323|    6.525998|   10.022836|
|         420|  4.2794e-01|    2.945982|    6.380463|    6.562556|   10.055885|
|         421|  4.2768e-01|    2.988325|    6.423112|    6.604515|   10.094451|
|         422|  4.2742e-01|    3.036749|    6.471919|    6.652624|   10.139394|
|         423|  4.2719e-01|    3.092179|    6.528127|    6.707728|   10.192269|
|         424|  4.2693e-01|    3.152570|    6.588186|    6.768289|   10.249993|
|         425|  4.2670e-01|    3.226250|    6.663098|    6.841474|   10.321950|
|         426|  4.2648e-01|    3.303979|    6.740779|    6.919592|   10.398413|
|         427|  4.2626e-01|    3.312758|    6.749170|    6.928370|   10.406738|
|         428|  4.2600e-01|    3.323661|    6.759950|    6.939687|   10.418164|
|         429|  4.2578e-01|    3.336827|    6.773322|    6.953274|   10.432054|
|         430|  4.2556e-01|    3.353579|    6.789839|    6.970172|   10.448484|
|         431|  4.2532e-01|    3.374043|    6.809905|    6.990748|   10.468382|
|         432|  4.2511e-01|    3.401414|    6.837638|    7.017746|   10.494911|
|         433|  4.2489e-01|    3.433054|    6.869680|    7.049098|   10.525913|
|         434|  4.2465e-01|    3.469356|    6.906413|    7.085035|   10.561465|
|         435|  4.2443e-01|    3.510976|    6.948555|    7.126506|   10.602764|
|         436|  4.2418e-01|    3.558572|    6.996942|    7.173754|   10.650328|
|         437|  4.2393e-01|    3.610594|    7.048869|    7.226039|   10.702209|
|         438|  4.2372e-01|    3.674007|    7.113417|    7.288956|   10.765803|
|         439|  4.2351e-01|    3.744616|    7.183988|    7.359979|   10.836579|
|         440|  4.2327e-01|    3.823710|    7.264624|    7.438447|   10.916250|
|         441|  4.2303e-01|    3.832248|    7.272644|    7.447406|   10.924572|
|         442|  4.2282e-01|    3.842805|    7.282892|    7.457960|   10.934852|
|         443|  4.2258e-01|    3.855642|    7.295558|    7.470815|   10.947650|
|         444|  4.2237e-01|    3.872018|    7.312222|    7.487675|   10.965240|
|         445|  4.2213e-01|    3.891259|    7.331697|    7.507172|   10.985092|
|         446|  4.2189e-01|    3.917016|    7.357699|    7.532515|   11.010121|
|         447|  4.2165e-01|    3.946844|    7.387883|    7.561982|   11.039331|
|         448|  4.2145e-01|    3.981247|    7.422828|    7.596288|   11.073820|
|         449|  4.2125e-01|    4.020671|    7.463083|    7.635279|   11.113496|
|         450|  4.2101e-01|    4.063083|    7.505180|    7.678043|   11.155724|
|         451|  4.2081e-01|    4.115823|    7.558942|    7.730215|   11.208777|
|         452|  4.2062e-01|    4.173814|    7.616580|    7.788697|   11.266747|
|         453|  4.2032e-01|    4.244568|    7.688727|    7.858731|   11.338079|
|         454|  4.2002e-01|    4.322523|    7.766349|    7.937122|   11.416285|
|         455|  4.1972e-01|    4.330789|    7.774013|    7.945604|   11.423843|
|         456|  4.1942e-01|    4.341278|    7.784343|    7.956095|   11.434224|
|         457|  4.1912e-01|    4.354102|    7.796960|    7.969006|   11.447046|
|         458|  4.1881e-01|    4.371336|    7.814555|    7.986541|   11.465256|
|         459|  4.1852e-01|    4.390690|    7.834108|    8.006214|   11.485310|
|         460|  4.1823e-01|    4.416206|    7.859702|    8.031359|   11.510076|
|         461|  4.1794e-01|    4.445992|    7.889716|    8.060780|   11.539160|
|         462|  4.1765e-01|    4.480853|    7.925065|    8.095554|   11.574143|
|         463|  4.1736e-01|    4.520869|    7.965834|    8.135206|   11.614468|
|         464|  4.1707e-01|    4.564203|    8.008892|    8.178829|   11.657620|
|         465|  4.1679e-01|    4.617558|    8.063162|    8.231734|   11.711448|
|         466|  4.1654e-01|    4.676928|    8.122210|    8.291495|   11.770744|
|         467|  4.1624e-01|    4.748518|    8.195096|    8.362546|   11.843169|
|         468|  4.1594e-01|    4.826185|    8.272200|    8.440710|   11.920556|
|         469|  4.1566e-01|    4.834760|    8.280628|    8.449290|   11.928997|
|         470|  4.1539e-01|    4.845419|    8.291112|    8.459943|   11.939481|
|         471|  4.1511e-01|    4.859425|    8.305111|    8.474122|   11.953845|
|         472|  4.1483e-01|    4.876330|    8.322146|    8.491212|   11.971214|
|         473|  4.1456e-01|    4.898458|    8.344510|    8.513083|   11.992973|
|         474|  4.1428e-01|    4.923959|    8.370278|    8.538436|   12.018241|
|         475|  4.1400e-01|    4.953388|    8.400117|    8.567770|   12.047757|
|         476|  4.1373e-01|    4.987105|    8.434472|    8.601023|   12.081560|
|         477|  4.1342e-01|    5.023652|    8.470838|    8.637807|   12.118184|
|         478|  4.1316e-01|    5.066735|    8.513731|    8.681104|   12.161066|
|         479|  4.1289e-01|    5.120209|    8.568143|    8.734057|   12.214883|
|         480|  4.1265e-01|    5.178985|    8.626710|    8.793195|   12.273674|
|         481|  4.1239e-01|    5.250622|    8.699773|    8.864153|   12.346013|
|         482|  4.1211e-01|    5.328927|    8.777731|    8.942994|   12.424422|
|         483|  4.1183e-01|    5.337380|    8.785874|    8.951444|   12.432540|
|         484|  4.1156e-01|    5.347475|    8.795558|    8.961531|   12.442232|
|         485|  4.1130e-01|    5.362800|    8.811435|    8.977110|   12.458665|
|         486|  4.1105e-01|    5.378271|    8.826896|    8.992629|   12.474102|
|         487|  4.1076e-01|    5.400655|    8.849556|    9.014637|   12.496067|
|         488|  4.1050e-01|    5.426870|    8.876159|    9.040611|   12.522152|
|         489|  4.1024e-01|    5.457052|    8.906748|    9.070544|   12.552235|
|         490|  4.0998e-01|    5.491442|    8.941569|    9.104660|   12.586541|
|         491|  4.0973e-01|    5.528940|    8.978909|    9.142316|   12.624006|
|         492|  4.0947e-01|    5.575311|    9.025768|    9.188430|   12.670413|
|         493|  4.0922e-01|    5.626398|    9.076525|    9.239692|   12.721337|
|         494|  4.0897e-01|    5.686716|    9.136377|    9.300242|   12.781520|
|         495|  4.0872e-01|    5.758458|    9.208077|    9.372304|   12.853613|
|         496|  4.0843e-01|    5.837905|    9.288541|    9.451623|   12.933786|
|         497|  4.0822e-01|    5.846955|    9.297360|    9.460682|   12.942694|
|         498|  4.0794e-01|    5.857675|    9.308386|    9.471485|   12.954073|
|         499|  4.0773e-01|    5.871104|    9.321630|    9.485304|   12.967983|
|         500|  4.0749e-01|    5.889531|    9.341006|    9.503703|   12.987377|
+-----------------------------------------------------------------------+
|        File Writing Summary       |              Filename             |
+-----------------------------------------------------------------------+
|SU2 binary restart                 |restart_flow.dat                   |
|Paraview                           |flow.vtu                           |
|CSV file                           |surface_flow.csv                   |
+-----------------------------------------------------------------------+
+-----------------------------------------------------------------------------+
|  Inner_Iter|   Time(sec)|    rms[Rho]|   rms[RhoU]|   rms[RhoV]|   rms[RhoE]|
+-----------------------------------------------------------------------------+
|         501|  4.0762e-01|    5.911303|    9.362887|    9.525293|   13.008845|
|         502|  4.0738e-01|    5.935525|    9.386585|    9.549237|   13.031706|
|         503|  4.0713e-01|    5.963611|    9.415055|    9.577289|   13.059961|
|         504|  4.0689e-01|    5.995723|    9.447594|    9.609341|   13.092288|
|         505|  4.0665e-01|    6.032448|    9.484956|    9.645754|   13.129606|
|         506|  4.0641e-01|    6.072729|    9.524967|    9.686159|   13.169612|
|         507|  4.0617e-01|    6.122234|    9.574234|    9.735831|   13.219021|
|         508|  4.0593e-01|    6.182675|    9.634414|    9.796514|   13.279274|
|         509|  4.0567e-01|    6.255922|    9.708302|    9.869528|   13.352685|
|         510|  4.0543e-01|    6.334993|    9.788377|    9.948205|   13.432664|
|         511|  4.0519e-01|    6.411762|    9.864430|   10.025278|   13.508934|
|         512|  4.0493e-01|    6.420877|    9.873290|   10.034594|   13.517795|
|         513|  4.0470e-01|    6.431992|    9.884393|   10.045718|   13.528930|
|         514|  4.0446e-01|    6.447051|    9.899721|   10.060586|   13.544124|
|         515|  4.0423e-01|    6.463194|    9.915638|   10.076904|   13.560048|
|         516|  4.0399e-01|    6.484078|    9.936837|   10.097533|   13.581006|
|         517|  4.0374e-01|    6.506837|    9.959361|   10.120530|   13.603621|
|         518|  4.0351e-01|    6.535707|    9.988619|   10.149059|   13.632519|
|         519|  4.0328e-01|    6.567193|   10.019877|   10.180652|   13.663847|
|         520|  4.0302e-01|    6.604647|   10.057048|   10.218362|   13.701178|
|         521|  4.0282e-01|    6.651097|   10.104056|   10.264478|   13.747850|
|         522|  4.0257e-01|    6.702646|   10.155261|   10.316357|   13.799332|
|         523|  4.0234e-01|    6.765462|   10.218773|   10.378801|   13.862515|
|         524|  4.0212e-01|    6.835439|   10.288258|   10.449164|   13.932324|
|         525|  4.0190e-01|    6.913987|   10.367773|   10.527219|   14.011486|
|         526|  4.0167e-01|    6.923221|   10.376855|   10.536576|   14.020727|
|         527|  4.0145e-01|    6.934372|   10.387708|   10.547954|   14.031639|
|         528|  4.0120e-01|    6.947966|   10.401239|   10.561547|   14.045210|
|         529|  4.0098e-01|    6.965702|   10.419172|   10.579274|   14.063016|
|         530|  4.0076e-01|    6.986449|   10.440275|   10.599657|   14.083744|
|         531|  4.0055e-01|    7.009177|   10.462796|   10.622547|   14.106473|
|         532|  4.0033e-01|    7.035830|   10.489154|   10.649396|   14.132867|
|         533|  4.0011e-01|    7.069791|   10.523557|   10.683076|   14.167021|
|         534|  3.9990e-01|    7.107157|   10.560527|   10.720715|   14.204114|
|         535|  3.9965e-01|    7.153041|   10.606982|   10.766241|   14.250296|
|         536|  3.9947e-01|    7.203061|   10.656458|   10.816632|   14.300021|
|         537|  3.9922e-01|    7.264549|   10.718813|   10.877585|   14.361890|
|         538|  3.9901e-01|    7.332535|   10.786243|   10.945889|   14.429793|
|         539|  3.9880e-01|    7.410794|   10.863559|   11.024474|   14.507326|
|         540|  3.9859e-01|    7.490127|   10.943881|   11.103409|   14.587388|
|         541|  3.9838e-01|    7.498560|   10.951706|   11.112159|   14.595384|
|         542|  3.9817e-01|    7.509331|   10.962173|   11.122923|   14.605864|
|         543|  3.9796e-01|    7.522201|   10.974764|   11.135790|   14.618500|
|         544|  3.9775e-01|    7.534211|   10.986701|   11.147833|   14.630735|
|         545|  3.9754e-01|    7.554923|   11.007854|   11.168531|   14.651691|
|         546|  3.9733e-01|    7.578109|   11.031390|   11.191698|   14.675070|
|         547|  3.9713e-01|    7.604296|   11.057884|   11.217866|   14.701455|
|         548|  3.9689e-01|    7.633854|   11.087690|   11.247407|   14.731189|
|         549|  3.9669e-01|    7.669457|   11.123984|   11.282459|   14.766991|
|         550|  3.9649e-01|    7.707059|   11.160849|   11.320585|   14.804243|
|         551|  3.9630e-01|    7.752857|   11.207019|   11.365674|   14.849741|
|         552|  3.9610e-01|    7.799908|   11.254122|   11.412266|   14.896251|
|         553|  3.9589e-01|    7.868899|   11.322964|   11.482375|   14.966219|
|         554|  3.9569e-01|    7.944344|   11.398292|   11.557941|   15.041635|
|         555|  3.9549e-01|    8.013120|   11.467294|   11.626879|   15.110803|
|         556|  3.9530e-01|    7.883059|   11.337583|   11.497196|   14.982801|
|         557|  3.9510e-01|    8.033798|   11.488009|   11.647527|   15.131524|
|         558|  3.9490e-01|    8.041122|   11.495356|   11.654858|   15.138873|
|         559|  3.9470e-01|    8.058515|   11.512761|   11.672246|   15.156248|
|         560|  3.9450e-01|    8.082467|   11.536724|   11.696189|   15.180166|
|         561|  3.9431e-01|    8.109782|   11.564061|   11.723496|   15.207460|
|         562|  3.9408e-01|    8.142213|   11.596518|   11.755944|   15.239901|
|         563|  3.9392e-01|    8.181165|   11.635497|   11.794894|   15.278822|
|         564|  3.9372e-01|    8.227358|   11.681732|   11.841138|   15.325065|
|         565|  3.9353e-01|    8.282833|   11.737258|   11.896591|   15.380472|
|         566|  3.9334e-01|    8.346521|   11.800996|   11.960278|   15.444138|
|         567|  3.9313e-01|    8.422572|   11.877112|   12.036306|   15.520126|
|         568|  3.9295e-01|    8.501886|   11.956472|   12.115656|   15.599452|
|         569|  3.9275e-01|    8.581489|   12.036132|   12.195252|   15.679022|
|         570|  3.9256e-01|    8.593681|   12.048328|   12.207419|   15.691172|
|         571|  3.9237e-01|    8.608197|   12.062851|   12.221966|   15.705728|
|         572|  3.9216e-01|    8.625615|   12.080280|   12.239416|   15.723187|
|         573|  3.9197e-01|    8.646516|   12.101194|   12.260347|   15.744125|
|         574|  3.9178e-01|    8.671887|   12.126577|   12.285743|   15.769512|
|         575|  3.9160e-01|    8.701305|   12.156012|   12.315159|   15.798921|
|         576|  3.9141e-01|    8.734718|   12.189429|   12.348530|   15.832249|
|         577|  3.9123e-01|    8.775613|   12.230347|   12.389429|   15.873137|
|         578|  3.9107e-01|    8.822283|   12.277030|   12.436071|   15.919745|
|         579|  3.9089e-01|    8.878880|   12.333662|   12.492661|   15.976324|
|         580|  3.9070e-01|    8.943160|   12.397968|   12.556913|   16.040549|
|         581|  3.9052e-01|    9.015600|   12.470397|   12.629323|   16.112882|
|         582|  3.9034e-01|    9.095310|   12.550137|   12.709036|   16.192595|
|         583|  3.9013e-01|    9.107042|   12.561871|   12.720755|   16.204301|
|         584|  3.8995e-01|    9.121844|   12.576678|   12.735555|   16.219103|
|         585|  3.8980e-01|    9.140003|   12.594844|   12.753711|   16.237262|
|         586|  3.8959e-01|    9.162140|   12.616989|   12.775846|   16.259397|
|         587|  3.8941e-01|    9.188594|   12.643450|   12.802297|   16.285846|
|         588|  3.8923e-01|    9.220139|   12.675005|   12.833839|   16.317386|
|         589|  3.8906e-01|    9.257609|   12.712485|   12.871305|   16.354848|
|         590|  3.8888e-01|    9.301966|   12.756853|   12.915658|   16.399196|
|         591|  3.8868e-01|    9.354205|   12.809104|   12.967895|   16.451424|
|         592|  3.8850e-01|    9.415451|   12.870361|   13.029136|   16.512658|
|         593|  3.8834e-01|    9.486893|   12.941816|   13.100575|   16.584088|
|         594|  3.8818e-01|    9.565991|   13.020927|   13.179670|   16.663174|
|         595|  3.8800e-01|    9.645056|   13.100003|   13.258731|   16.742227|
|         596|  3.8783e-01|    9.660617|   13.115560|   13.274297|   16.757784|
|         597|  3.8766e-01|    9.676726|   13.131672|   13.290405|   16.773891|
|         598|  3.8746e-01|    9.696125|   13.151074|   13.309804|   16.793288|
|         599|  3.8729e-01|    9.719182|   13.174134|   13.332859|   16.816341|
|         600|  3.8712e-01|    9.746563|   13.201519|   13.360239|   16.843719|
|         601|  3.8695e-01|    9.779042|   13.234003|   13.392716|   16.876194|
|         602|  3.8679e-01|    9.817479|   13.272445|   13.431152|   16.914626|
|         603|  3.8664e-01|    9.862877|   13.317848|   13.476549|   16.960019|
|         604|  3.8645e-01|    9.916109|   13.371086|   13.529779|   17.013244|
|         605|  3.8628e-01|    9.979639|   13.434617|   13.593312|   17.076767|
|         606|  3.8611e-01|   10.050698|   13.505681|   13.664371|   17.147821|
|         607|  3.8595e-01|   10.128344|   13.583325|   13.742024|   17.225461|
|         608|  3.8575e-01|   10.208585|   13.663556|   13.822276|   17.305705|
|         609|  3.8558e-01|   10.221942|   13.676914|   13.835633|   17.319061|
|         610|  3.8544e-01|   10.237952|   13.692925|   13.851643|   17.335070|
|         611|  3.8527e-01|   10.257111|   13.712085|   13.870801|   17.354228|
|         612|  3.8511e-01|   10.279988|   13.734963|   13.893677|   17.377103|
|         613|  3.8492e-01|   10.307191|   13.762168|   13.920880|   17.404304|
|         614|  3.8476e-01|   10.340698|   13.795678|   13.954387|   17.437811|
|         615|  3.8459e-01|   10.379406|   13.834388|   13.993095|   17.476516|
|         616|  3.8441e-01|   10.424321|   13.879304|   14.038009|   17.521428|
|         617|  3.8424e-01|   10.484414|   13.939443|   14.097880|   17.581244|
|         618|  3.8408e-01|   10.542010|   13.997006|   14.155697|   17.639112|
|         619|  3.8392e-01|   10.614379|   14.069373|   14.228065|   17.711476|
|         620|  3.8373e-01|   10.694300|   14.149299|   14.307977|   17.791384|
|         621|  3.8360e-01|   10.590940|   14.045947|   14.204606|   17.688056|
|         622|  3.8344e-01|   10.781501|   14.236503|   14.395171|   17.878572|
|         623|  3.8330e-01|   10.797795|   14.252797|   14.411468|   17.894869|
|         624|  3.8315e-01|   10.815004|   14.270007|   14.428668|   17.912065|
|         625|  3.8301e-01|   10.672877|   14.127888|   14.286573|   17.770027|
|         626|  3.8286e-01|   10.849192|   14.304196|   14.462807|   17.946186|
|         627|  3.8270e-01|   10.881661|   14.336668|   14.495274|   17.978654|
|         628|  3.8254e-01|   10.766308|   14.221328|   14.379987|   17.863436|
|         629|  3.8241e-01|   10.940592|   14.395604|   14.554145|   18.037506|
|         630|  3.8226e-01|   10.993678|   14.448694|   14.607228|   18.090591|
|         631|  3.8210e-01|   10.904544|   14.359578|   14.518132|   18.001554|
|         632|  3.8197e-01|   11.090150|   14.545174|   14.703628|   18.186971|
|         633|  3.8182e-01|   11.169077|   14.624107|   14.782553|   18.265897|
|         634|  3.8164e-01|   11.097841|   14.552890|   14.711324|   18.194716|
|         635|  3.8151e-01|   11.143059|   14.598113|   14.758970|   18.244182|
|         636|  3.8136e-01|   11.143069|   14.598122|   14.759351|   18.244722|
|         637|  3.8120e-01|   11.143080|   14.598133|   14.759699|   18.245215|
|         638|  3.8104e-01|   11.142574|   14.600066|   14.755808|   18.239516|
|         639|  3.8089e-01|   11.142342|   14.600359|   14.755575|   18.239426|
|         640|  3.8074e-01|   11.141975|   14.599658|   14.755310|   18.238982|
|         641|  3.8059e-01|   11.143038|   14.612863|   14.755657|   18.244107|
|         642|  3.8044e-01|   11.140811|   14.607814|   14.753928|   18.240299|
|         643|  3.8030e-01|   11.139942|   14.603131|   14.753624|   18.237339|
|         644|  3.8016e-01|   11.149155|   14.597398|   14.765021|   18.243953|
|         645|  3.8001e-01|   11.148760|   14.596513|   14.764611|   18.243210|
|         646|  3.7988e-01|   11.148240|   14.595724|   14.764052|   18.242519|
|         647|  3.7973e-01|   11.147043|   14.593903|   14.762774|   18.240765|
|         648|  3.7960e-01|   11.145356|   14.591903|   14.760964|   18.238699|
|         649|  3.7946e-01|   11.142027|   14.588170|   14.757446|   18.234807|
|         650|  3.7932e-01|   11.136605|   14.582569|   14.751720|   18.228777|
|         651|  3.7922e-01|   11.129317|   14.575647|   14.743967|   18.220963|
|         652|  3.7915e-01|   11.115237|   14.561949|   14.729158|   18.205488|
|         653|  3.7898e-01|   11.100964|   14.552105|   14.713938|   18.192643|
|         654|  3.7891e-01|   11.101266|   14.550674|   14.714287|   18.190656|
|         655|  3.7881e-01|   11.298297|   14.754546|   14.911594|   18.394894|
|         656|  3.7867e-01|   11.414928|   14.902120|   15.024654|   18.523707|
|         657|  3.7853e-01|   11.313226|   14.769281|   14.926453|   18.409685|
|         658|  3.7839e-01|   11.333485|   14.790302|   14.946678|   18.430305|
|         659|  3.7824e-01|   11.353926|   14.810582|   14.967182|   18.451004|
|         660|  3.7810e-01|   11.182642|   14.635194|   14.795723|   18.274954|
|         661|  3.7798e-01|   11.201898|   14.650318|   14.815966|   18.293062|
|         662|  3.7784e-01|   11.201679|   14.650044|   14.816162|   18.293268|
|         663|  3.7770e-01|   11.201516|   14.649655|   14.815870|   18.292721|
|         664|  3.7756e-01|   11.201468|   14.649181|   14.815542|   18.292187|
|         665|  3.7744e-01|   11.201767|   14.649256|   14.815637|   18.292560|
|         666|  3.7730e-01|   11.201138|   14.648480|   14.814773|   18.291421|
|         667|  3.7718e-01|   11.202129|   14.648629|   14.816112|   18.292899|
|         668|  3.7702e-01|   11.777735|   15.207379|   15.402007|   18.873717|
|         669|  3.7689e-01|   11.707164|   15.138997|   15.331131|   18.803842|
|         670|  3.7675e-01|   11.327236|   14.778929|   14.945355|   18.427948|
|         671|  3.7661e-01|   11.368773|   14.824203|   14.988056|   18.473711|
|         672|  3.7647e-01|   11.519053|   14.974271|   15.140042|   18.626108|
|         673|  3.7634e-01|   11.614504|   15.068714|   15.227501|   18.710690|
|         674|  3.7618e-01|   11.529106|   14.976649|   15.085302|   18.548211|
|         675|  3.7604e-01|   11.402665|   14.857413|   15.008970|   18.482878|
|         676|  3.7590e-01|   11.332559|   14.782391|   14.933989|   18.399581|
|         677|  3.7577e-01|   11.627610|   15.080772|   15.231400|   18.704672|
|         678|  3.7563e-01|   11.487369|   14.940440|   15.090681|   18.560230|
|         679|  3.7550e-01|   11.390671|   14.843425|   14.990449|   18.457939|
|         680|  3.7537e-01|   11.312370|   14.765270|   14.907313|   18.380652|
|         681|  3.7530e-01|   11.319142|   14.762633|   14.930973|   18.368592|
|         682|  3.7521e-01|   11.321892|   14.765476|   14.929536|   18.377778|
|         683|  3.7513e-01|   11.239673|   14.680665|   14.850315|   18.305523|
|         684|  3.7500e-01|   11.141881|   14.583070|   14.764661|   18.235864|
|         685|  3.7486e-01|   11.055619|   14.504751|   14.693935|   18.192387|
|         686|  3.7478e-01|   10.979157|   14.429798|   14.657205|   18.155915|
|         687|  3.7465e-01|   10.965848|   14.440686|   14.627155|   18.160042|
|         688|  3.7454e-01|   10.915890|   14.371383|   14.606414|   18.116634|
|         689|  3.7441e-01|   10.928141|   14.394482|   14.583081|   18.102939|
|         690|  3.7428e-01|   10.916807|   14.370457|   14.560884|   18.064321|
|         691|  3.7415e-01|   10.929807|   14.370928|   14.557686|   18.041506|
|         692|  3.7402e-01|   11.067907|   14.496077|   14.674205|   18.137281|
|         693|  3.7389e-01|   11.031836|   14.423156|   14.635306|   18.074941|
|         694|  3.7376e-01|   11.043568|   14.389902|   14.643462|   18.057682|
|         695|  3.7363e-01|   11.126626|   14.492599|   14.724543|   18.148723|
|         696|  3.7355e-01|   11.139739|   14.511003|   14.768861|   18.193887|
|         697|  3.7347e-01|   11.269649|   14.641956|   14.893771|   18.315917|
|         698|  3.7341e-01|   11.303836|   14.675084|   14.927038|   18.346174|
|         699|  3.7333e-01|   11.308676|   14.679743|   14.926916|   18.346668|
|         700|  3.7327e-01|   11.281770|   14.653404|   14.914294|   18.334082|
|         701|  3.7318e-01|   11.293344|   14.663996|   14.919281|   18.339646|
|         702|  3.7310e-01|   11.289333|   14.658148|   14.903142|   18.324388|
|         703|  3.7303e-01|   11.661705|   15.121044|   15.569294|   19.227463|
|         704|  3.7296e-01|   10.624601|   14.036776|   14.331200|   17.746217|
|         705|  3.7286e-01|   11.924583|   15.344395|   15.786402|   19.398828|
|         706|  3.7280e-01|   11.561517|   14.980778|   15.389081|   18.974806|
|         707|  3.7275e-01|   11.560931|   14.980170|   15.368245|   18.939150|
|         708|  3.7262e-01|   11.560622|   14.979843|   15.347896|   18.904835|
|         709|  3.7250e-01|   11.560478|   14.979731|   15.322646|   18.862841|
|         710|  3.7238e-01|   10.856277|   14.371962|   14.441175|   17.943402|
|         711|  3.7225e-01|   11.229352|   14.640013|   14.931250|   18.414315|
|         712|  3.7213e-01|   10.975504|   14.413732|   14.609889|   18.082428|
|         713|  3.7200e-01|   10.908385|   14.393790|   14.502669|   17.987858|
|         714|  3.7188e-01|   10.941043|   14.505098|   14.487485|   18.017583|
|         715|  3.7176e-01|   11.214435|   14.749442|   14.757233|   18.301553|
|         716|  3.7162e-01|   11.295877|   14.812373|   14.777868|   18.316968|
|         717|  3.7150e-01|   11.401259|   14.880982|   14.862208|   18.353289|
|         718|  3.7140e-01|   11.393735|   14.839486|   14.860559|   18.305408|
|         719|  3.7126e-01|   11.381296|   14.826055|   14.833271|   18.273483|
|         720|  3.7113e-01|   11.364649|   14.806637|   14.791793|   18.226659|
|         721|  3.7102e-01|   11.346009|   14.785747|   14.735855|   18.167387|
|         722|  3.7092e-01|   11.338556|   14.776794|   14.695872|   18.128925|
|         723|  3.7080e-01|   11.293270|   14.725509|   14.630977|   18.046192|
|         724|  3.7068e-01|   11.325399|   14.746267|   14.688264|   18.112862|
|         725|  3.7055e-01|   11.285425|   14.701378|   14.642725|   18.073166|
|         726|  3.7047e-01|   11.277166|   14.694083|   14.644814|   18.074107|
|         727|  3.7035e-01|   11.282488|   14.701849|   14.648017|   18.072121|
|         728|  3.7026e-01|   11.283534|   14.696532|   14.635697|   18.042306|
|         729|  3.7014e-01|   11.268926|   14.689299|   14.632424|   18.057651|
|         730|  3.7002e-01|   12.603751|   16.089031|   16.093572|   19.577418|
|         731|  3.6990e-01|   12.222042|   15.628510|   15.756538|   19.184292|
|         732|  3.6977e-01|   11.813802|   15.236297|   15.216498|   18.653111|
|         733|  3.6966e-01|   11.762647|   15.235811|   15.159842|   18.640151|
|         734|  3.6954e-01|   11.789012|   15.262592|   15.198311|   18.678399|
|         735|  3.6942e-01|   11.795876|   15.273272|   15.211011|   18.695924|
|         736|  3.6931e-01|   11.803167|   15.284018|   15.222474|   18.712063|
|         737|  3.6919e-01|   11.809934|   15.293486|   15.232943|   18.726387|
|         738|  3.6907e-01|   11.622384|   15.068370|   15.009570|   18.475058|
|         739|  3.6896e-01|   11.631246|   15.084328|   15.016563|   18.491600|
|         740|  3.6885e-01|   11.566521|   14.999633|   14.916218|   18.366887|
|         741|  3.6880e-01|   11.562817|   14.999717|   14.911817|   18.367498|
|         742|  3.6874e-01|   11.575118|   15.016031|   14.932815|   18.393717|
|         743|  3.6867e-01|   11.411342|   14.891191|   14.845989|   18.341499|
|         744|  3.6861e-01|   11.405779|   14.897522|   14.890462|   18.389314|
|         745|  3.6853e-01|   11.399786|   14.885972|   14.920964|   18.413251|
|         746|  3.6844e-01|   11.365785|   14.837429|   14.824856|   18.298414|
|         747|  3.6834e-01|   11.291356|   14.758534|   14.766906|   18.236902|
|         748|  3.6822e-01|   11.278948|   14.745450|   14.777163|   18.247113|
|         749|  3.6812e-01|   11.278984|   14.741122|   14.784160|   18.250277|
|         750|  3.6801e-01|   11.285607|   14.747860|   14.771512|   18.239410|
+-----------------------------------------------------------------------+
|        File Writing Summary       |              Filename             |
+-----------------------------------------------------------------------+
|SU2 binary restart                 |restart_flow.dat                   |
|Paraview                           |flow.vtu                           |
|CSV file                           |surface_flow.csv                   |
+-----------------------------------------------------------------------+
+-----------------------------------------------------------------------------+
|  Inner_Iter|   Time(sec)|    rms[Rho]|   rms[RhoU]|   rms[RhoV]|   rms[RhoE]|
+-----------------------------------------------------------------------------+
|         751|  3.6815e-01|   11.355236|   14.824867|   14.847715|   18.318036|
|         752|  3.6803e-01|   11.335148|   14.806348|   14.844153|   18.316273|
|         753|  3.6792e-01|   11.345085|   14.825252|   14.851011|   18.330464|
|         754|  3.6781e-01|   11.449267|   14.900962|   14.987991|   18.445601|
|         755|  3.6768e-01|   11.394026|   14.838414|   14.937067|   18.386825|
|         756|  3.6759e-01|   11.404799|   14.859062|   14.971164|   18.437447|
|         757|  3.6748e-01|   11.392711|   14.842820|   14.936587|   18.391212|
|         758|  3.6736e-01|   11.385222|   14.835013|   14.921845|   18.377019|
|         759|  3.6727e-01|   11.202619|   14.631787|   14.734398|   18.165689|
|         760|  3.6717e-01|   11.268880|   14.717189|   14.790253|   18.240830|
|         761|  3.6707e-01|   11.284700|   14.755642|   14.791603|   18.262134|
|         762|  3.6695e-01|   11.880907|   15.406243|   15.378511|   18.903232|
|         763|  3.6684e-01|   11.853952|   15.351219|   15.350931|   18.847014|
|         764|  3.6673e-01|   11.795445|   15.235474|   15.292648|   18.736112|
|         765|  3.6663e-01|   11.724228|   15.164027|   15.229239|   18.673441|
|         766|  3.6652e-01|   11.665623|   15.106072|   15.175999|   18.621323|
|         767|  3.6641e-01|   11.614569|   15.055946|   15.128206|   18.574381|
|         768|  3.6633e-01|   11.206413|   14.626326|   14.714103|   18.137646|
|         769|  3.6620e-01|   11.521079|   14.946637|   15.048888|   18.489653|
|         770|  3.6612e-01|   11.484258|   14.919703|   15.008704|   18.453050|
|         771|  3.6605e-01|   11.908154|   15.335205|   15.501817|   18.960057|
|         772|  3.6593e-01|   11.493677|   14.937193|   15.007019|   18.455115|
|         773|  3.6582e-01|   11.434904|   14.898307|   14.944500|   18.407234|
|         774|  3.6574e-01|   11.693017|   15.145522|   15.215165|   18.671617|
|         775|  3.6563e-01|   11.550162|   15.010441|   15.060438|   18.520236|
|         776|  3.6551e-01|   11.485161|   14.949069|   14.982870|   18.441504|
|         777|  3.6543e-01|   11.662140|   15.131737|   15.175601|   18.643174|
|         778|  3.6532e-01|   11.867907|   15.314638|   15.389428|   18.839703|
|         779|  3.6522e-01|   11.858440|   15.287146|   15.379610|   18.815227|
|         780|  3.6512e-01|   11.746694|   15.165513|   15.263460|   18.689648|
|         781|  3.6501e-01|   11.687549|   15.114828|   15.204509|   18.638778|
|         782|  3.6491e-01|   11.623712|   15.057717|   15.140248|   18.581523|
|         783|  3.6481e-01|   11.613583|   15.054114|   15.128530|   18.575749|
|         784|  3.6471e-01|   11.567491|   15.019188|   15.080603|   18.536736|
|         785|  3.6461e-01|   11.559093|   15.025694|   15.072634|   18.541319|
|         786|  3.6450e-01|   11.280191|   14.763672|   14.757202|   18.231507|
|         787|  3.6442e-01|   10.865005|   14.423248|   14.247357|   17.775190|
|         788|  3.6433e-01|   10.874780|   14.422532|   14.445982|   17.984943|
|         789|  3.6422e-01|   10.867417|   14.410506|   14.451166|   18.003440|
|         790|  3.6412e-01|   10.892624|   14.437760|   14.412021|   17.947000|
|         791|  3.6402e-01|   10.897917|   14.437788|   14.430941|   17.960132|
|         792|  3.6392e-01|   11.051765|   14.593955|   14.460759|   18.016568|
|         793|  3.6381e-01|   10.965953|   14.520699|   14.416279|   17.971223|
|         794|  3.6371e-01|   10.987786|   14.546240|   14.428431|   17.993219|
|         795|  3.6363e-01|   11.055589|   14.607813|   14.466425|   18.038984|
|         796|  3.6351e-01|   12.165384|   15.701475|   15.426944|   19.044956|
|         797|  3.6341e-01|   12.222633|   15.770026|   15.393804|   19.088044|
|         798|  3.6331e-01|   11.762112|   15.296365|   14.985039|   18.629609|
|         799|  3.6321e-01|   11.220882|   14.867870|   14.667716|   18.396287|
|         800|  3.6311e-01|   11.356100|   14.964500|   14.728267|   18.453850|
|         801|  3.6307e-01|   11.842066|   15.345405|   15.321920|   18.837095|
|         802|  3.6304e-01|   11.185621|   14.900078|   14.660148|   18.464333|
|         803|  3.6298e-01|   11.175832|   14.895093|   14.643593|   18.455286|
|         804|  3.6294e-01|   11.763894|   15.510824|   15.293575|   19.084601|
|         805|  3.6290e-01|   11.118439|   14.844207|   14.622122|   18.418360|
|         806|  3.6286e-01|   11.102104|   14.862499|   14.621883|   18.445718|
|         807|  3.6284e-01|   11.215324|   14.915060|   14.688760|   18.479195|
|         808|  3.6280e-01|   11.206829|   14.900832|   14.718115|   18.465469|
|         809|  3.6276e-01|   11.214136|   14.901162|   14.727817|   18.468478|
|         810|  3.6274e-01|   11.865542|   15.509216|   15.387876|   19.053585|
|         811|  3.6270e-01|   11.355157|   15.056481|   14.915245|   18.636945|
|         812|  3.6264e-01|   11.252232|   14.984940|   14.759912|   18.555669|
|         813|  3.6259e-01|   11.142831|   14.907683|   14.660413|   18.490827|
|         814|  3.6255e-01|   11.166033|   14.865710|   14.696286|   18.448243|
|         815|  3.6250e-01|   11.241168|   14.923588|   14.805226|   18.505908|
|         816|  3.6246e-01|   11.408747|   15.156801|   14.937707|   18.727598|
|         817|  3.6242e-01|   11.294311|   15.045856|   14.813207|   18.618606|
|         818|  3.6237e-01|   11.152987|   14.910950|   14.679872|   18.509814|
|         819|  3.6231e-01|   11.121907|   14.832722|   14.637323|   18.414626|
|         820|  3.6229e-01|   11.082741|   14.828553|   14.613656|   18.417415|
|         821|  3.6223e-01|   11.230175|   14.984824|   14.785474|   18.581530|
|         822|  3.6224e-01|   11.508337|   15.291757|   15.076604|   18.904102|
|         823|  3.6218e-01|   11.246069|   15.028487|   14.792466|   18.632800|
|         824|  3.6215e-01|   11.187299|   14.937848|   14.720555|   18.526716|
|         825|  3.6209e-01|   11.143858|   14.883177|   14.688258|   18.472786|
|         826|  3.6204e-01|   11.115786|   14.862371|   14.651419|   18.451123|
|         827|  3.6200e-01|   11.229715|   14.973903|   14.802078|   18.575384|
|         828|  3.6199e-01|   11.397797|   15.152475|   14.942509|   18.744577|
|         829|  3.6195e-01|   11.693905|   15.440049|   15.234969|   19.026566|
|         830|  3.6189e-01|   11.783104|   15.522463|   15.319193|   19.103765|
|         831|  3.6186e-01|   11.794492|   15.531503|   15.328193|   19.110887|
|         832|  3.6181e-01|   11.783902|   15.520008|   15.316997|   19.098823|
|         833|  3.6175e-01|   11.772240|   15.508113|   15.305205|   19.086697|
|         834|  3.6172e-01|   11.750839|   15.486546|   15.283843|   19.065094|
|         835|  3.6166e-01|   11.720409|   15.455200|   15.255525|   19.034710|
|         836|  3.6155e-01|   11.733740|   15.468943|   15.271910|   19.050394|
|         837|  3.6146e-01|   11.733802|   15.469503|   15.271737|   19.050990|
|         838|  3.6136e-01|   11.690322|   15.424990|   15.227080|   19.005302|
|         839|  3.6133e-01|   11.672108|   15.405593|   15.208229|   18.984983|
|         840|  3.6128e-01|   11.667739|   15.401328|   15.203599|   18.980612|
|         841|  3.6122e-01|   11.662998|   15.396641|   15.198507|   18.975757|
|         842|  3.6117e-01|   11.658793|   15.392521|   15.193966|   18.971490|
|         843|  3.6112e-01|   11.656617|   15.390436|   15.191633|   18.969380|
|         844|  3.6108e-01|   11.657196|   15.391256|   15.192228|   18.970353|
|         845|  3.6103e-01|   11.658332|   15.392691|   15.193482|   18.972036|
|         846|  3.6098e-01|   11.657567|   15.392077|   15.192831|   18.971596|
|         847|  3.6092e-01|   11.655604|   15.390141|   15.190986|   18.969776|
|         848|  3.6089e-01|   11.653010|   15.387535|   15.188481|   18.967253|
|         849|  3.6083e-01|   11.650170|   15.384703|   15.185674|   18.964479|
|         850|  3.6078e-01|   11.646637|   15.381233|   15.182117|   18.961063|
|         851|  3.6073e-01|   11.642288|   15.377017|   15.177763|   18.956936|
|         852|  3.6068e-01|   11.637096|   15.372132|   15.172494|   18.952165|
|         853|  3.6064e-01|   11.631393|   15.367036|   15.166590|   18.947240|
|         854|  3.6059e-01|   11.626968|   15.363768|   15.161749|   18.944253|
|         855|  3.6054e-01|   11.630512|   15.369748|   15.164327|   18.950761|
|         856|  3.6051e-01|   11.658971|   15.403312|   15.189998|   18.984955|
|         857|  3.6046e-01|   11.750458|   15.501953|   15.275228|   19.083266|
|         858|  3.6041e-01|   11.660794|   15.400957|   15.189334|   18.979421|
|         859|  3.6036e-01|   12.236588|   15.990516|   15.769504|   19.577389|
|         860|  3.6033e-01|   11.919177|   15.650737|   15.451897|   19.227458|
|         861|  3.6027e-01|   11.942842|   15.672412|   15.475830|   19.248354|
|         862|  3.6022e-01|   11.933006|   15.661059|   15.466226|   19.236461|
|         863|  3.6017e-01|   11.936661|   15.664859|   15.469331|   19.240063|
|         864|  3.6014e-01|   11.988133|   15.716671|   15.520302|   19.291754|
|         865|  3.6009e-01|   12.047566|   15.778313|   15.580845|   19.355000|
|         866|  3.6004e-01|   12.016699|   15.744990|   15.550909|   19.321156|
|         867|  3.5995e-01|   12.524629|   16.248634|   16.060931|   19.824307|


Error in "void CSolver::SetResidual_RMS(const CGeometry*, const CConfig*)": 
-------------------------------------------------------------------------
SU2 has diverged (Residual > 10^20 detected).
------------------------------ Error Exit -------------------------------



Total elapsed: 0:05:15
