
-------------------------------------------------------------------------
|    ___ _   _ ___                                                      |
|   / __| | | |_  )   Release 8.3.0 "Harrier"                           |
|   \__ \ |_| |/ /                                                      |
|   |___/\___//___|   Suite (Computational Fluid Dynamics Code)         |
|                                                                       |
-------------------------------------------------------------------------
| SU2 Project Website: https://su2code.github.io                        |
|                                                                       |
| The SU2 Project is maintained by the SU2 Foundation                   |
| (http://su2foundation.org)                                            |
-------------------------------------------------------------------------
| Copyright 2012-2025, SU2 Contributors                                 |
|                                                                       |
| SU2 is free software; you can redistribute it and/or                  |
| modify it under the terms of the GNU Lesser General Public            |
| License as published by the Free Software Foundation; either          |
| version 2.1 of the License, or (at your option) any later version.    |
|                                                                       |
| SU2 is distributed in the hope that it will be useful,                |
| but WITHOUT ANY WARRANTY; without even the implied warranty of        |
| MERCHANTABILITY or FITNESS FOR A PARTICULAR PURPOSE. See the GNU      |
| Lesser General Public License for more details.                       |
|                                                                       |
| You should have received a copy of the GNU Lesser General Public      |
| License along with SU2. If not, see <http://www.gnu.org/licenses/>.   |
-------------------------------------------------------------------------

Parsing config file for zone 0

----------------- Physical Case Definition ( Zone 0 ) -------------------
Compressible Laminar Navier-Stokes' equations.
Mach number: 0.3.
Angle of attack (AoA): 0 deg, and angle of sideslip (AoS): 0 deg.
Reynolds number: 89810. Reference length 0.166667.
No restart solution, use the values at infinity (freestream).
Dimensional simulation.
The reference area is 0.0833333 ft^2.
The semi-span will be computed using the max y(3D) value.
The reference length is 0.166667 ft.
Input mesh file name: swirler_n6_c2_AoA10_NACA8412.su2

--------------- Space Numerical Integration ( Zone 0 ) ------------------
Roe (with entropy fix = 0.05) solver for the flow inviscid terms.
Standard Roe without low-dissipation function.
Second order integration in space, with slope limiter.
Venkatakrishnan slope-limiting method, with constant: 0.02.
The reference element size is: 3.28084. 
Average of gradients with correction (viscous flow terms).
Gradient for upwind reconstruction: inverse-distance weighted Least-Squares.
Gradient for viscous and source terms: inverse-distance weighted Least-Squares.

--------------- Time Numerical Integration  ( Zone 0 ) ------------------
Local time stepping (steady state simulation).
Euler implicit method for the flow equations.
FGMRES is used for solving the linear system.
Using a ILU(0) preconditioning.
Convergence criteria of the linear solver: 1e-06.
Max number of linear iterations: 120.
CFL adaptation. Factor down: 0.5, factor up: 1.2,
                lower limit: 0.01, upper limit: 30,
                acceptable linear residual: 0.001'
                starting iteration: 0.
Courant-Friedrichs-Lewy number:      0.5

------------------ Convergence Criteria  ( Zone 0 ) ---------------------
Maximum number of solver subiterations: 2500.
Begin convergence monitoring at iteration 20.
Residual minimum value: 1e-8.
Cauchy series min. value: 1e-06.
Number of Cauchy elements: 100.
Begin windowed time average at iteration 0.

-------------------- Output Information ( Zone 0 ) ----------------------
File writing frequency: 
+------------------------------------+
|                     File| Frequency|
+------------------------------------+
|                  RESTART|       250|
|                 PARAVIEW|       250|
|              SURFACE_CSV|       250|
+------------------------------------+
Writing the convergence history file every 1 inner iterations.
Writing the screen convergence history every 1 inner iterations.
The tabular file format is CSV (.csv).
Convergence history file name: history.
Forces breakdown file name: forces_breakdown.dat.
Surface file name: surface_flow.
Volume file name: flow.
Restart file name: restart_flow.

------------- Config File Boundary Information ( Zone 0 ) ---------------
+-----------------------------------------------------------------------+
|                        Marker Type|                        Marker Name|
+-----------------------------------------------------------------------+
|                     Inlet boundary|                              Inlet|
+-----------------------------------------------------------------------+
|                    Outlet boundary|                             Outlet|
+-----------------------------------------------------------------------+
|                     Heat flux wall|                           Airfoils|
|                                   |                          Symmetry1|
|                                   |                          Symmetry2|
+-----------------------------------------------------------------------+

-------------------- Output Preprocessing ( Zone 0 ) --------------------

WARNING: SURFACE_PRESSURE_DROP can only be computed for at least 2 surfaces (outlet, inlet, ...)

Screen output fields: INNER_ITER, WALL_TIME, RMS_DENSITY, RMS_MOMENTUM-X, RMS_MOMENTUM-Y, RMS_ENERGY
History output group(s): ITER, RMS_RES
Convergence field(s): RMS_DENSITY
Warning: No (valid) fields chosen for time convergence monitoring. Time convergence monitoring inactive.
Volume output fields: COORDINATES, SOLUTION, PRIMITIVE

------------------- Geometry Preprocessing ( Zone 0 ) -------------------
Two dimensional problem.
118454 grid points.
235164 volume elements.
5 surface markers.
1188 boundary elements in index 0 (Marker = Airfoils).
63 boundary elements in index 1 (Marker = Inlet).
220 boundary elements in index 2 (Marker = Symmetry1).
220 boundary elements in index 3 (Marker = Symmetry2).
63 boundary elements in index 4 (Marker = Outlet).
235164 triangles.
Setting point connectivity.
Renumbering points (Reverse Cuthill McKee Ordering).
Recomputing point connectivity.
Setting element connectivity.
Checking the numerical grid orientation.
All volume elements are correctly oriented.
All surface elements are correctly oriented.
Identifying edges and vertices.
Setting the control volume structure.
Area of the computational grid: 0.95648.
Searching for the closest normal neighbors to the surfaces.
Storing a mapping from global to local point index.
Compute the surface curvature.
Max K: 90341.5. Mean K: 343.352. Standard deviation K: 5268.13.
Checking for periodicity.
Computing mesh quality statistics for the dual control volumes.
+--------------------------------------------------------------+
|           Mesh Quality Metric|        Minimum|        Maximum|
+--------------------------------------------------------------+
|    Orthogonality Angle (deg.)|        73.5946|        89.5571|
|     CV Face Area Aspect Ratio|        1.00005|        12.6932|
|           CV Sub-Volume Ratio|              1|        10.8599|
+--------------------------------------------------------------+
Finding max control volume width.
Wetted area = 0 ft.
Area projection in the x-plane = 0 ft, y-plane = 0 ft.
Max. coordinate in the x-direction = -1e+10 ft, y-direction = -1e+10 ft.
Min. coordinate in the x-direction = 1e+10 ft, y-direction = 1e+10 ft.
Computing wall distances.

-------------------- Solver Preprocessing ( Zone 0 ) --------------------
Viscous flow: Computing pressure using the ideal gas law
based on the free-stream temperature and a density computed
from the Reynolds number.
Force coefficients computed using free-stream values.

-- Models:
+------------------------------------------------------------------------------+
|          Viscosity Model|        Conductivity Model|              Fluid Model|
+------------------------------------------------------------------------------+
|               SUTHERLAND|          CONSTANT_PRANDTL|             STANDARD_AIR|
+------------------------------------------------------------------------------+
-- Fluid properties:
+------------------------------------------------------------------------------+
|                  Name|    Dim. value|    Ref. value|      Unit|Non-dim. value|
+------------------------------------------------------------------------------+
|        Ref. Viscosity|     3.737e-07|             1|lbf.s/ft^2|     3.737e-07|
|      Sutherland Temp.|        518.67|             1|         R|        518.67|
|     Sutherland Const.|        198.72|             1|         R|        198.72|
+------------------------------------------------------------------------------+
|        Prandtl (Lam.)|             -|             -|         -|          0.72|
|       Prandtl (Turb.)|             -|             -|         -|           0.9|
+------------------------------------------------------------------------------+
|          Gas Constant|       1716.49|             1|lbf.ft/slug.R|       1716.49|
|      Spec. Heat Ratio|             -|             -|         -|           1.4|
+------------------------------------------------------------------------------+
-- Initial and free-stream conditions:
+------------------------------------------------------------------------------+
|                  Name|    Dim. value|    Ref. value|      Unit|Non-dim. value|
+------------------------------------------------------------------------------+
|       Static Pressure|       2116.19|             1|       psf|       2116.19|
|               Density|   0.000742687|             1| slug/ft^3|   0.000742687|
|           Temperature|          1660|             1|         R|          1660|
|          Total Energy|   7.30294e+06|             1|  ft^2/s^2|   7.30294e+06|
|            Velocity-X|       599.184|             1|      ft/s|       599.184|
|            Velocity-Y|             0|             1|      ft/s|             0|
|    Velocity Magnitude|       599.184|             1|      ft/s|       599.184|
+------------------------------------------------------------------------------+
|             Viscosity|   8.25829e-07|             1|lbf.s/ft^2|   8.25829e-07|
|          Conductivity|             -|             1|lbf/ft.s.R|             -|
+------------------------------------------------------------------------------+
|           Mach Number|             -|             -|         -|           0.3|
|       Reynolds Number|             -|             -|         -|         89810|
+------------------------------------------------------------------------------+
Initialize Jacobian structure (Navier-Stokes). MG level: 0.

------------------- Numerics Preprocessing ( Zone 0 ) -------------------

----------------- Integration Preprocessing ( Zone 0 ) ------------------

------------------- Iteration Preprocessing ( Zone 0 ) ------------------
Euler/Navier-Stokes/RANS fluid iteration.

------------------------------ Begin Solver -----------------------------

Simulation Run using the Single-zone Driver
WARNING: SU2 was not compiled for an AVX-capable architecture. Performance could be better,
         see https://su2code.github.io/docs_v7/Build-SU2-Linux-MacOS/#compiler-optimizations
+-----------------------------------------------------------------------------+
|  Inner_Iter|   Time(sec)|    rms[Rho]|   rms[RhoU]|   rms[RhoV]|   rms[RhoE]|
+-----------------------------------------------------------------------------+
|           0|  5.5400e-01|   -4.943091|   -5.358056|  -15.247859|    2.063925|
|           1|  4.6650e-01|   -4.931186|   -1.096506|   -1.786615|    2.066150|
|           2|  4.3533e-01|   -5.000393|   -1.115434|   -1.863811|    2.017998|
|           3|  4.3350e-01|   -5.030919|   -1.148642|   -1.865375|    1.979838|
|           4|  4.3060e-01|   -5.065494|   -1.185228|   -1.883505|    1.937464|
|           5|  4.2450e-01|   -5.091779|   -1.225614|   -1.906696|    1.906978|
|           6|  4.2343e-01|   -5.111230|   -1.270692|   -1.932744|    1.884534|
|           7|  4.2500e-01|   -5.133027|   -1.318984|   -1.960167|    1.861492|
|           8|  4.2633e-01|   -5.152369|   -1.372172|   -1.977589|    1.841587|
|           9|  4.2700e-01|   -5.172702|   -1.429787|   -1.986266|    1.822642|
|          10|  4.3127e-01|   -5.202002|   -1.491183|   -2.001010|    1.795379|
|          11|  4.3667e-01|   -5.213208|   -1.560361|   -2.004632|    1.787899|
|          12|  4.3938e-01|   -5.233630|   -1.625668|   -2.019646|    1.770385|
|          13|  4.4664e-01|   -5.262003|   -1.692707|   -2.035501|    1.743591|
|          14|  4.5433e-01|   -5.299706|   -1.764082|   -2.054720|    1.706842|
|          15|  4.6125e-01|   -5.325593|   -1.831554|   -2.079249|    1.681506|
|          16|  4.7047e-01|   -5.352501|   -1.884985|   -2.124525|    1.654116|
|          17|  4.8006e-01|   -5.384542|   -1.937109|   -2.186791|    1.621437|
|          18|  4.9247e-01|   -5.422408|   -1.983668|   -2.245483|    1.583053|
|          19|  5.0495e-01|   -5.473103|   -2.027036|   -2.299491|    1.531665|
|          20|  5.2052e-01|   -5.529931|   -2.077499|   -2.348752|    1.474211|
|          21|  5.3736e-01|   -5.587731|   -2.133805|   -2.404194|    1.415430|
|          22|  5.5870e-01|   -5.640370|   -2.190380|   -2.442577|    1.362442|
|          23|  5.8062e-01|   -5.690273|   -2.240465|   -2.478934|    1.312905|
|          24|  6.0100e-01|   -5.737362|   -2.293715|   -2.522774|    1.266119|
|          25|  6.2108e-01|   -5.756918|   -2.339363|   -2.569088|    1.246624|
|          26|  6.3737e-01|   -5.770964|   -2.380000|   -2.611402|    1.233405|
|          27|  6.5375e-01|   -5.791168|   -2.408723|   -2.657889|    1.214095|
|          28|  6.6769e-01|   -5.812781|   -2.429744|   -2.681650|    1.193333|
|          29|  6.7990e-01|   -5.828980|   -2.444733|   -2.695021|    1.177114|
|          30|  6.9287e-01|   -5.863213|   -2.461205|   -2.711876|    1.141894|
|          31|  7.0503e-01|   -5.887371|   -2.474893|   -2.726102|    1.116854|
|          32|  7.1603e-01|   -5.890265|   -2.486415|   -2.723502|    1.113476|
|          33|  7.2538e-01|   -5.894400|   -2.498792|   -2.736276|    1.108959|
|          34|  7.3420e-01|   -5.892148|   -2.510512|   -2.752248|    1.110606|
|          35|  7.4219e-01|   -5.903084|   -2.520782|   -2.785962|    1.099530|
|          36|  7.4997e-01|   -5.906952|   -2.529210|   -2.809726|    1.095853|
|          37|  7.5724e-01|   -5.923399|   -2.531501|   -2.844470|    1.079390|
|          38|  7.6426e-01|   -5.941698|   -2.533392|   -2.868378|    1.061245|
|          39|  7.7087e-01|   -5.960559|   -2.532722|   -2.868977|    1.042481|
|          40|  7.7698e-01|   -5.978758|   -2.534998|   -2.865897|    1.024532|
|          41|  7.8314e-01|   -6.003819|   -2.534057|   -2.875398|    0.999202|
|          42|  7.9091e-01|   -6.017469|   -2.539245|   -2.877300|    0.985828|
|          43|  7.9700e-01|   -6.013540|   -2.542833|   -2.868066|    0.991192|
|          44|  8.0247e-01|   -6.019893|   -2.553054|   -2.896062|    0.986115|
|          45|  8.0748e-01|   -6.040180|   -2.567856|   -2.931677|    0.966995|
|          46|  8.1226e-01|   -6.028653|   -2.582842|   -2.948156|    0.980659|
|          47|  8.1685e-01|   -6.017628|   -2.598461|   -2.960823|    0.993440|
|          48|  8.2208e-01|   -6.003129|   -2.614703|   -2.956752|    1.009247|
|          49|  8.2628e-01|   -5.999452|   -2.631657|   -2.966062|    1.013406|
|          50|  8.3020e-01|   -6.006362|   -2.650020|   -2.984406|    1.006284|
|          51|  8.3394e-01|   -6.012446|   -2.666900|   -2.987346|    0.999323|
|          52|  8.3751e-01|   -6.019439|   -2.679904|   -2.979988|    0.991208|
|          53|  8.4106e-01|   -6.034621|   -2.692527|   -2.980884|    0.973727|
|          54|  8.4449e-01|   -6.055540|   -2.707541|   -2.983543|    0.950345|
|          55|  8.4779e-01|   -6.077773|   -2.722248|   -2.992743|    0.925608|
|          56|  8.5098e-01|   -6.088790|   -2.733696|   -2.976511|    0.912388|
|          57|  8.5407e-01|   -6.104008|   -2.743632|   -2.976854|    0.895544|
|          58|  8.5705e-01|   -6.126153|   -2.752981|   -2.984153|    0.871857|
|          59|  8.6002e-01|   -6.141644|   -2.757669|   -2.984575|    0.855896|
|          60|  8.6361e-01|   -6.151533|   -2.757076|   -2.982777|    0.846306|
|          61|  8.6711e-01|   -6.167057|   -2.754244|   -2.988444|    0.831570|
|          62|  8.7048e-01|   -6.189102|   -2.747827|   -2.992719|    0.810039|
|          63|  8.7366e-01|   -6.213213|   -2.741655|   -2.999843|    0.786748|
|          64|  8.7691e-01|   -6.217006|   -2.731209|   -2.987587|    0.785576|
|          65|  8.7991e-01|   -6.247487|   -2.722514|   -3.001301|    0.755317|
|          66|  8.8290e-01|   -6.280438|   -2.715657|   -3.008724|    0.723987|
|          67|  8.8571e-01|   -6.312252|   -2.709376|   -3.021000|    0.692887|
|          68|  8.8852e-01|   -6.340918|   -2.707652|   -3.031361|    0.664240|
|          69|  8.9120e-01|   -6.350501|   -2.706704|   -3.043017|    0.655092|
|          70|  8.9308e-01|   -6.330220|   -2.706164|   -3.035810|    0.677132|
|          71|  8.9483e-01|   -6.311555|   -2.708935|   -3.038649|    0.695960|
|          72|  8.9675e-01|   -6.312841|   -2.714573|   -3.057514|    0.695491|
|          73|  8.9850e-01|   -6.297473|   -2.721104|   -3.060263|    0.710521|
|          74|  9.0020e-01|   -6.296785|   -2.726533|   -3.075162|    0.711762|
|          75|  9.0187e-01|   -6.282898|   -2.731786|   -3.071986|    0.726213|
|          76|  9.0351e-01|   -6.285071|   -2.739376|   -3.085305|    0.725049|
|          77|  9.0512e-01|   -6.260519|   -2.742787|   -3.080543|    0.749748|
|          78|  9.0667e-01|   -6.274165|   -2.745881|   -3.094754|    0.736955|
|          79|  9.0819e-01|   -6.278115|   -2.750456|   -3.104443|    0.733865|
|          80|  9.0968e-01|   -6.258866|   -2.751426|   -3.087973|    0.753552|
|          81|  9.1112e-01|   -6.271189|   -2.751844|   -3.103186|    0.742070|
|          82|  9.1261e-01|   -6.272995|   -2.752492|   -3.108070|    0.740466|
|          83|  9.1425e-01|   -6.268515|   -2.751359|   -3.101470|    0.745142|
|          84|  9.1567e-01|   -6.279700|   -2.750631|   -3.113070|    0.733721|
|          85|  9.1705e-01|   -6.290708|   -2.749776|   -3.115526|    0.722776|
|          86|  9.1839e-01|   -6.300604|   -2.749449|   -3.119004|    0.712364|
|          87|  9.1965e-01|   -6.311781|   -2.746381|   -3.120762|    0.701133|
|          88|  9.2087e-01|   -6.321079|   -2.745785|   -3.117671|    0.691353|
|          89|  9.2201e-01|   -6.328544|   -2.745702|   -3.114436|    0.682891|
|          90|  9.2318e-01|   -6.363585|   -2.744928|   -3.130479|    0.647541|
|          91|  9.2434e-01|   -6.371168|   -2.744519|   -3.125917|    0.639326|
|          92|  9.2542e-01|   -6.392274|   -2.744423|   -3.133064|    0.617893|
|          93|  9.2662e-01|   -6.407887|   -2.745533|   -3.134284|    0.601053|
|          94|  9.2768e-01|   -6.431897|   -2.748010|   -3.138812|    0.575420|
|          95|  9.2870e-01|   -6.440602|   -2.749799|   -3.136054|    0.565669|
|          96|  9.2967e-01|   -6.474811|   -2.753532|   -3.148216|    0.530205|
|          97|  9.3065e-01|   -6.459199|   -2.756378|   -3.137058|    0.546106|
|          98|  9.3157e-01|   -6.446868|   -2.758267|   -3.125977|    0.558771|
|          99|  9.3252e-01|   -6.483942|   -2.765334|   -3.146809|    0.520263|
|         100|  9.3352e-01|   -6.453096|   -2.770206|   -3.134791|    0.552252|
|         101|  9.3448e-01|   -6.440439|   -2.775462|   -3.130242|    0.565081|
|         102|  9.3534e-01|   -6.438222|   -2.781357|   -3.135750|    0.567399|
|         103|  9.3623e-01|   -6.406880|   -2.787448|   -3.124516|    0.599848|
|         104|  9.3705e-01|   -6.376052|   -2.790970|   -3.115102|    0.631029|
|         105|  9.3803e-01|   -6.363520|   -2.795558|   -3.110539|    0.644078|
|         106|  9.3888e-01|   -6.358780|   -2.801766|   -3.117611|    0.649295|
|         107|  9.3972e-01|   -6.344763|   -2.805104|   -3.112049|    0.663582|
|         108|  9.4050e-01|   -6.337027|   -2.807881|   -3.107723|    0.671454|
|         109|  9.4128e-01|   -6.333411|   -2.809519|   -3.104506|    0.674958|
|         110|  9.4203e-01|   -6.332905|   -2.808153|   -3.105985|    0.675087|
|         111|  9.4277e-01|   -6.330685|   -2.807080|   -3.098747|    0.676967|
|         112|  9.4352e-01|   -6.333937|   -2.804236|   -3.093550|    0.673348|
|         113|  9.4425e-01|   -6.338346|   -2.800454|   -3.087721|    0.668346|
|         114|  9.4501e-01|   -6.339854|   -2.796546|   -3.078684|    0.666196|
|         115|  9.4578e-01|   -6.359019|   -2.793760|   -3.075692|    0.645826|
|         116|  9.4647e-01|   -6.367515|   -2.791101|   -3.070105|    0.636044|
|         117|  9.4717e-01|   -6.364878|   -2.786975|   -3.057710|    0.637850|
|         118|  9.4785e-01|   -6.385162|   -2.785566|   -3.053623|    0.615671|
|         119|  9.4858e-01|   -6.418911|   -2.783214|   -3.051877|    0.579333|
|         120|  9.4920e-01|   -6.442509|   -2.781708|   -3.047307|    0.554059|
|         121|  9.4987e-01|   -6.430653|   -2.780507|   -3.034946|    0.565720|
|         122|  9.5054e-01|   -6.432724|   -2.777766|   -3.021422|    0.564022|
|         123|  9.5123e-01|   -6.425989|   -2.773850|   -3.007669|    0.570641|
|         124|  9.5183e-01|   -6.418634|   -2.775711|   -3.003770|    0.577945|
|         125|  9.5281e-01|   -6.455605|   -2.777124|   -3.007116|    0.538542|
|         126|  9.5380e-01|   -6.445141|   -2.774591|   -2.999100|    0.549932|
|         127|  9.5442e-01|   -6.423812|   -2.772303|   -2.987156|    0.572546|
|         128|  9.5495e-01|   -6.425822|   -2.769692|   -2.978848|    0.569863|
|         129|  9.5552e-01|   -6.424344|   -2.766962|   -2.974103|    0.570577|
|         130|  9.5605e-01|   -6.407843|   -2.764278|   -2.967637|    0.587417|
|         131|  9.5665e-01|   -6.415127|   -2.760540|   -2.960866|    0.579193|
|         132|  9.5719e-01|   -6.421780|   -2.759116|   -2.953354|    0.571957|
|         133|  9.5769e-01|   -6.419056|   -2.754828|   -2.947608|    0.573524|
|         134|  9.5821e-01|   -6.410024|   -2.749465|   -2.941425|    0.581728|
|         135|  9.5874e-01|   -6.392756|   -2.743534|   -2.926366|    0.600640|
|         136|  9.5923e-01|   -6.369628|   -2.736430|   -2.911323|    0.624824|
|         137|  9.5974e-01|   -6.373610|   -2.732474|   -2.903707|    0.618530|
|         138|  9.6023e-01|   -6.358244|   -2.728699|   -2.899401|    0.634175|
|         139|  9.6069e-01|   -6.386682|   -2.727174|   -2.898683|    0.602145|
|         140|  9.6118e-01|   -6.388361|   -2.722633|   -2.890654|    0.600436|
|         141|  9.6170e-01|   -6.373019|   -2.718374|   -2.877214|    0.616428|
|         142|  9.6227e-01|   -6.347176|   -2.713197|   -2.865855|    0.642329|
|         143|  9.6274e-01|   -6.367175|   -2.713983|   -2.869587|    0.620123|
|         144|  9.6324e-01|   -6.353353|   -2.707578|   -2.858287|    0.635911|
|         145|  9.6372e-01|   -6.367177|   -2.706185|   -2.852698|    0.619508|
|         146|  9.6423e-01|   -6.358538|   -2.706153|   -2.850835|    0.628853|
|         147|  9.6470e-01|   -6.389601|   -2.704391|   -2.847120|    0.594361|
|         148|  9.6548e-01|   -6.391213|   -2.701096|   -2.838796|    0.592120|
|         149|  9.6625e-01|   -6.368499|   -2.698064|   -2.832725|    0.616657|
|         150|  9.6705e-01|   -6.379177|   -2.696899|   -2.830170|    0.604528|
|         151|  9.6788e-01|   -6.382124|   -2.691811|   -2.824581|    0.600790|
|         152|  9.6858e-01|   -6.374647|   -2.686931|   -2.820962|    0.608716|
|         153|  9.6932e-01|   -6.338266|   -2.683287|   -2.812403|    0.649740|
|         154|  9.6785e-01|   -6.348645|   -2.677595|   -2.806570|    0.637787|
|         155|  9.6523e-01|   -6.388004|   -2.681099|   -2.806757|    0.593416|
|         156|  9.6211e-01|   -6.453336|   -2.683761|   -2.810956|    0.516527|
|         157|  9.5934e-01|   -6.495646|   -2.685554|   -2.812921|    0.464337|
|         158|  9.5665e-01|   -6.475710|   -2.686001|   -2.808485|    0.490753|
|         159|  9.5341e-01|   -6.509652|   -2.685848|   -2.811220|    0.447222|
|         160|  9.5049e-01|   -6.506304|   -2.685932|   -2.809770|    0.451604|
|         161|  9.4759e-01|   -6.506338|   -2.686020|   -2.807518|    0.451494|
|         162|  9.4450e-01|   -6.525197|   -2.685189|   -2.808902|    0.426699|
|         163|  9.4120e-01|   -6.543320|   -2.686055|   -2.808755|    0.402227|
|         164|  9.3766e-01|   -6.557970|   -2.686344|   -2.808822|    0.381519|
|         165|  9.3418e-01|   -6.565360|   -2.686465|   -2.808699|    0.370868|
|         166|  9.3075e-01|   -6.559714|   -2.686310|   -2.807721|    0.378548|
|         167|  9.2710e-01|   -6.559986|   -2.686199|   -2.807431|    0.377995|
|         168|  9.2354e-01|   -6.563673|   -2.686262|   -2.807536|    0.372736|
|         169|  9.1998e-01|   -6.565211|   -2.686294|   -2.807536|    0.370550|
|         170|  9.1646e-01|   -6.565673|   -2.686300|   -2.807509|    0.369895|
|         171|  9.1301e-01|   -6.565772|   -2.686300|   -2.807488|    0.369755|
|         172|  9.0961e-01|   -6.565804|   -2.686300|   -2.807475|    0.369709|
|         173|  9.0621e-01|   -6.565878|   -2.686300|   -2.807464|    0.369604|
|         174|  9.0288e-01|   -6.566028|   -2.686302|   -2.807457|    0.369391|
|         175|  8.9956e-01|   -6.566214|   -2.686305|   -2.807452|    0.369127|
|         176|  8.9628e-01|   -6.566400|   -2.686308|   -2.807447|    0.368864|
|         177|  8.9303e-01|   -6.566576|   -2.686311|   -2.807441|    0.368615|
|         178|  8.8984e-01|   -6.566776|   -2.686313|   -2.807436|    0.368331|
|         179|  8.8668e-01|   -6.567010|   -2.686316|   -2.807432|    0.367999|
|         180|  8.8356e-01|   -6.567243|   -2.686319|   -2.807429|    0.367666|
|         181|  8.8047e-01|   -6.567472|   -2.686321|   -2.807425|    0.367341|
|         182|  8.7740e-01|   -6.567703|   -2.686324|   -2.807421|    0.367012|
|         183|  8.7439e-01|   -6.567930|   -2.686327|   -2.807417|    0.366691|
|         184|  8.7139e-01|   -6.568149|   -2.686330|   -2.807413|    0.366380|
|         185|  8.6843e-01|   -6.568363|   -2.686332|   -2.807409|    0.366076|
|         186|  8.6553e-01|   -6.568576|   -2.686334|   -2.807405|    0.365775|
|         187|  8.6264e-01|   -6.568788|   -2.686337|   -2.807402|    0.365472|
|         188|  8.5977e-01|   -6.569003|   -2.686339|   -2.807399|    0.365166|
|         189|  8.5692e-01|   -6.569223|   -2.686341|   -2.807397|    0.364853|
|         190|  8.5411e-01|   -6.569448|   -2.686344|   -2.807396|    0.364532|
|         191|  8.5133e-01|   -6.569677|   -2.686346|   -2.807395|    0.364203|
|         192|  8.4857e-01|   -6.569912|   -2.686349|   -2.807395|    0.363868|
|         193|  8.4587e-01|   -6.570151|   -2.686351|   -2.807395|    0.363526|
|         194|  8.4317e-01|   -6.570395|   -2.686354|   -2.807396|    0.363177|
|         195|  8.4052e-01|   -6.570643|   -2.686357|   -2.807397|    0.362822|
|         196|  8.3788e-01|   -6.570894|   -2.686359|   -2.807399|    0.362462|
|         197|  8.3525e-01|   -6.571149|   -2.686362|   -2.807402|    0.362097|
|         198|  8.3267e-01|   -6.571410|   -2.686365|   -2.807405|    0.361721|
|         199|  8.3013e-01|   -6.571676|   -2.686367|   -2.807408|    0.361340|
|         200|  8.2759e-01|   -6.571944|   -2.686370|   -2.807412|    0.360954|
|         201|  8.2507e-01|   -6.572214|   -2.686372|   -2.807416|    0.360565|
|         202|  8.2265e-01|   -6.572485|   -2.686375|   -2.807421|    0.360175|
|         203|  8.2018e-01|   -6.572756|   -2.686378|   -2.807426|    0.359784|
|         204|  8.1773e-01|   -6.573026|   -2.686381|   -2.807431|    0.359393|
|         205|  8.1532e-01|   -6.573295|   -2.686384|   -2.807436|    0.359004|
|         206|  8.1293e-01|   -6.573562|   -2.686387|   -2.807442|    0.358619|
|         207|  8.1054e-01|   -6.573825|   -2.686391|   -2.807447|    0.358238|
|         208|  8.0819e-01|   -6.574084|   -2.686394|   -2.807452|    0.357865|
|         209|  8.0585e-01|   -6.574335|   -2.686397|   -2.807457|    0.357501|
|         210|  8.0354e-01|   -6.574578|   -2.686400|   -2.807461|    0.357149|
|         211|  8.0124e-01|   -6.574810|   -2.686403|   -2.807465|    0.356812|
|         212|  7.9898e-01|   -6.575031|   -2.686406|   -2.807469|    0.356493|
|         213|  7.9674e-01|   -6.575238|   -2.686409|   -2.807471|    0.356193|
|         214|  7.9451e-01|   -6.575430|   -2.686412|   -2.807473|    0.355914|
|         215|  7.9231e-01|   -6.575608|   -2.686414|   -2.807474|    0.355656|
|         216|  7.9013e-01|   -6.575801|   -2.686417|   -2.807474|    0.355378|
|         217|  7.8796e-01|   -6.576022|   -2.686420|   -2.807476|    0.355058|
|         218|  7.8583e-01|   -6.576266|   -2.686422|   -2.807480|    0.354705|
|         219|  7.8371e-01|   -6.576516|   -2.686423|   -2.807485|    0.354343|
|         220|  7.8160e-01|   -6.576771|   -2.686424|   -2.807488|    0.353975|
|         221|  7.7951e-01|   -6.577004|   -2.686426|   -2.807485|    0.353641|
|         222|  7.7745e-01|   -6.577280|   -2.686428|   -2.807481|    0.353244|
|         223|  7.7539e-01|   -6.577690|   -2.686431|   -2.807479|    0.352650|
|         224|  7.7338e-01|   -6.578258|   -2.686437|   -2.807477|    0.351825|
|         225|  7.7137e-01|   -6.579047|   -2.686447|   -2.807478|    0.350674|
|         226|  7.6937e-01|   -6.580110|   -2.686461|   -2.807487|    0.349118|
|         227|  7.6739e-01|   -6.581867|   -2.686487|   -2.807538|    0.346544|
|         228|  7.6543e-01|   -6.583288|   -2.686504|   -2.807547|    0.344456|
|         229|  7.6349e-01|   -6.584971|   -2.686519|   -2.807566|    0.341960|
|         230|  7.6155e-01|   -6.586289|   -2.686522|   -2.807571|    0.339987|
|         231|  7.5984e-01|   -6.586668|   -2.686508|   -2.807498|    0.339427|
|         232|  7.5811e-01|   -6.585809|   -2.686459|   -2.807276|    0.340734|
|         233|  7.5641e-01|   -6.584606|   -2.686387|   -2.807010|    0.342553|
|         234|  7.5472e-01|   -6.586544|   -2.686383|   -2.807152|    0.339577|
|         235|  7.5303e-01|   -6.594393|   -2.686498|   -2.807856|    0.327557|
|         236|  7.5138e-01|   -6.597586|   -2.686571|   -2.808410|    0.322607|
|         237|  7.4976e-01|   -6.592933|   -2.686595|   -2.808346|    0.329649|
|         238|  7.4828e-01|   -6.582346|   -2.686483|   -2.807723|    0.345632|
|         239|  7.4682e-01|   -6.576980|   -2.686551|   -2.806631|    0.353578|
|         240|  7.4537e-01|   -6.580404|   -2.686559|   -2.806642|    0.348500|
|         241|  7.4393e-01|   -6.579811|   -2.686358|   -2.806460|    0.349091|
|         242|  7.4252e-01|   -6.582004|   -2.686150|   -2.806367|    0.345903|
|         243|  7.4126e-01|   -6.571852|   -2.685659|   -2.805621|    0.360881|
|         244|  7.4004e-01|   -6.555566|   -2.685058|   -2.804002|    0.383869|
|         245|  7.3898e-01|   -6.542604|   -2.684455|   -2.801866|    0.401851|
|         246|  7.3796e-01|   -6.546556|   -2.683852|   -2.801596|    0.395579|
|         247|  7.3694e-01|   -6.513269|   -2.682141|   -2.797772|    0.439831|
|         248|  7.3610e-01|   -6.498963|   -2.681074|   -2.795237|    0.458084|
|         249|  7.3542e-01|   -6.471035|   -2.679776|   -2.791965|    0.491948|
|         250|  7.3475e-01|   -6.469877|   -2.678232|   -2.791680|    0.492466|
+-----------------------------------------------------------------------+
|        File Writing Summary       |              Filename             |
+-----------------------------------------------------------------------+
|SU2 binary restart                 |restart_flow.dat                   |
|Paraview                           |flow.vtu                           |
|CSV file                           |surface_flow.csv                   |
+-----------------------------------------------------------------------+
+-----------------------------------------------------------------------------+
|  Inner_Iter|   Time(sec)|    rms[Rho]|   rms[RhoU]|   rms[RhoV]|   rms[RhoE]|
+-----------------------------------------------------------------------------+
|         251|  7.3511e-01|   -6.435532|   -2.675286|   -2.785361|    0.534724|
|         252|  7.3479e-01|   -6.434380|   -2.672567|   -2.784648|    0.534094|
|         253|  7.3466e-01|   -6.426686|   -2.670291|   -2.782464|    0.542105|
|         254|  7.3473e-01|   -6.418357|   -2.666716|   -2.780184|    0.551274|
|         255|  7.3513e-01|   -6.403805|   -2.661029|   -2.776416|    0.567179|
|         256|  7.3567e-01|   -6.385684|   -2.654909|   -2.772646|    0.586932|
|         257|  7.3660e-01|   -6.385522|   -2.649908|   -2.772135|    0.585753|
|         258|  7.3789e-01|   -6.342456|   -2.642917|   -2.761643|    0.634509|
|         259|  7.3918e-01|   -6.320218|   -2.634797|   -2.758669|    0.658403|
|         260|  7.4046e-01|   -6.319481|   -2.631424|   -2.757033|    0.658551|
|         261|  7.4172e-01|   -6.320500|   -2.625431|   -2.752495|    0.657468|
|         262|  7.4298e-01|   -6.311630|   -2.622937|   -2.751620|    0.666469|
|         263|  7.4429e-01|   -6.338885|   -2.620771|   -2.751299|    0.633925|
|         264|  7.4562e-01|   -6.327062|   -2.619557|   -2.750229|    0.646961|
|         265|  7.4685e-01|   -6.348117|   -2.617287|   -2.747311|    0.622537|
|         266|  7.4806e-01|   -6.331819|   -2.615460|   -2.745058|    0.641236|
|         267|  7.4927e-01|   -6.335802|   -2.612505|   -2.742135|    0.636654|
|         268|  7.5046e-01|   -6.335094|   -2.610872|   -2.739992|    0.637407|
|         269|  7.5164e-01|   -6.337500|   -2.609990|   -2.736926|    0.634433|
|         270|  7.5281e-01|   -6.331117|   -2.607628|   -2.735438|    0.642855|
|         271|  7.5399e-01|   -6.343160|   -2.604959|   -2.734643|    0.629113|
|         272|  7.5514e-01|   -6.338404|   -2.601336|   -2.732750|    0.634627|
|         273|  7.5631e-01|   -6.345802|   -2.597552|   -2.730837|    0.627461|
|         274|  7.5747e-01|   -6.357795|   -2.593621|   -2.729662|    0.614301|
|         275|  7.5862e-01|   -6.355980|   -2.588895|   -2.727679|    0.616842|
|         276|  7.5977e-01|   -6.344943|   -2.581812|   -2.723719|    0.630413|
|         277|  7.6088e-01|   -6.355797|   -2.577762|   -2.721727|    0.617875|
|         278|  7.6200e-01|   -6.331058|   -2.573382|   -2.718440|    0.648412|
|         279|  7.6310e-01|   -6.333021|   -2.568641|   -2.715897|    0.645521|
|         280|  7.6421e-01|   -6.346736|   -2.565370|   -2.716413|    0.629650|
|         281|  7.6529e-01|   -6.334566|   -2.561081|   -2.712311|    0.644132|
|         282|  7.6536e-01|   -6.337137|   -2.558917|   -2.710636|    0.640407|
|         283|  7.6481e-01|   -6.392515|   -2.562584|   -2.710812|    0.574288|
|         284|  7.6381e-01|   -6.444534|   -2.565233|   -2.710974|    0.508530|
|         285|  7.6267e-01|   -6.468600|   -2.566823|   -2.710123|    0.477002|
|         286|  7.6141e-01|   -6.495600|   -2.567627|   -2.710519|    0.439675|
|         287|  7.6002e-01|   -6.509843|   -2.568003|   -2.710899|    0.419243|
|         288|  7.5864e-01|   -6.514331|   -2.568240|   -2.710632|    0.412351|
|         289|  7.5713e-01|   -6.513550|   -2.568310|   -2.710296|    0.413281|
|         290|  7.5563e-01|   -6.520794|   -2.568443|   -2.710728|    0.402669|
|         291|  7.5413e-01|   -6.523777|   -2.568494|   -2.710901|    0.398277|
|         292|  7.5266e-01|   -6.524885|   -2.568515|   -2.710957|    0.396647|
|         293|  7.5119e-01|   -6.525332|   -2.568525|   -2.710978|    0.395990|
|         294|  7.4973e-01|   -6.525611|   -2.568531|   -2.710991|    0.395581|
|         295|  7.4832e-01|   -6.525898|   -2.568538|   -2.711004|    0.395155|
|         296|  7.4689e-01|   -6.526214|   -2.568544|   -2.711020|    0.394682|
|         297|  7.4545e-01|   -6.526536|   -2.568552|   -2.711035|    0.394200|
|         298|  7.4403e-01|   -6.526846|   -2.568558|   -2.711051|    0.393737|
|         299|  7.4263e-01|   -6.527135|   -2.568565|   -2.711065|    0.393304|
|         300|  7.4123e-01|   -6.527405|   -2.568572|   -2.711078|    0.392898|
|         301|  7.3984e-01|   -6.527649|   -2.568578|   -2.711090|    0.392533|
|         302|  7.3846e-01|   -6.527862|   -2.568584|   -2.711100|    0.392215|
|         303|  7.3710e-01|   -6.528049|   -2.568589|   -2.711109|    0.391934|
|         304|  7.3573e-01|   -6.528220|   -2.568595|   -2.711117|    0.391680|
|         305|  7.3438e-01|   -6.528381|   -2.568600|   -2.711123|    0.391439|
|         306|  7.3304e-01|   -6.528538|   -2.568605|   -2.711129|    0.391205|
|         307|  7.3169e-01|   -6.528692|   -2.568610|   -2.711134|    0.390975|
|         308|  7.3035e-01|   -6.528844|   -2.568615|   -2.711139|    0.390747|
|         309|  7.2905e-01|   -6.528994|   -2.568619|   -2.711143|    0.390524|
|         310|  7.2773e-01|   -6.529140|   -2.568624|   -2.711147|    0.390306|
|         311|  7.2643e-01|   -6.529281|   -2.568629|   -2.711151|    0.390094|
|         312|  7.2514e-01|   -6.529419|   -2.568633|   -2.711154|    0.389888|
|         313|  7.2386e-01|   -6.529564|   -2.568638|   -2.711157|    0.389670|
|         314|  7.2257e-01|   -6.529714|   -2.568642|   -2.711161|    0.389441|
|         315|  7.2130e-01|   -6.529862|   -2.568647|   -2.711165|    0.389214|
|         316|  7.2003e-01|   -6.530000|   -2.568651|   -2.711168|    0.389003|
|         317|  7.1877e-01|   -6.530126|   -2.568655|   -2.711171|    0.388810|
|         318|  7.1754e-01|   -6.530242|   -2.568659|   -2.711174|    0.388633|
|         319|  7.1631e-01|   -6.530353|   -2.568663|   -2.711177|    0.388464|
|         320|  7.1507e-01|   -6.530462|   -2.568667|   -2.711180|    0.388299|
|         321|  7.1386e-01|   -6.530573|   -2.568671|   -2.711183|    0.388130|
|         322|  7.1264e-01|   -6.530704|   -2.568677|   -2.711186|    0.387931|
|         323|  7.1143e-01|   -6.530835|   -2.568683|   -2.711191|    0.387730|
|         324|  7.1024e-01|   -6.530946|   -2.568689|   -2.711194|    0.387563|
|         325|  7.0905e-01|   -6.531024|   -2.568694|   -2.711197|    0.387445|
|         326|  7.0786e-01|   -6.531073|   -2.568700|   -2.711199|    0.387373|
|         327|  7.0667e-01|   -6.531099|   -2.568704|   -2.711200|    0.387335|
|         328|  7.0551e-01|   -6.531113|   -2.568709|   -2.711201|    0.387316|
|         329|  7.0434e-01|   -6.531129|   -2.568713|   -2.711202|    0.387295|
|         330|  7.0319e-01|   -6.531180|   -2.568717|   -2.711203|    0.387221|
|         331|  7.0205e-01|   -6.531260|   -2.568721|   -2.711204|    0.387103|
|         332|  7.0090e-01|   -6.531358|   -2.568726|   -2.711206|    0.386958|
|         333|  6.9977e-01|   -6.531454|   -2.568730|   -2.711207|    0.386813|
|         334|  6.9864e-01|   -6.531551|   -2.568734|   -2.711209|    0.386669|
|         335|  6.9752e-01|   -6.531648|   -2.568738|   -2.711211|    0.386525|
|         336|  6.9640e-01|   -6.531744|   -2.568742|   -2.711214|    0.386381|
|         337|  6.9531e-01|   -6.531841|   -2.568746|   -2.711216|    0.386237|
|         338|  6.9421e-01|   -6.531938|   -2.568750|   -2.711218|    0.386092|
|         339|  6.9311e-01|   -6.532036|   -2.568754|   -2.711220|    0.385944|
|         340|  6.9202e-01|   -6.532137|   -2.568758|   -2.711222|    0.385794|
|         341|  6.9094e-01|   -6.532260|   -2.568762|   -2.711225|    0.385609|
|         342|  6.8987e-01|   -6.532425|   -2.568768|   -2.711229|    0.385364|
|         343|  6.8882e-01|   -6.532649|   -2.568776|   -2.711236|    0.385028|
|         344|  6.8777e-01|   -6.532934|   -2.568785|   -2.711244|    0.384599|
|         345|  6.8671e-01|   -6.533289|   -2.568796|   -2.711255|    0.384068|
|         346|  6.8566e-01|   -6.533727|   -2.568810|   -2.711268|    0.383409|
|         347|  6.8461e-01|   -6.534256|   -2.568826|   -2.711282|    0.382606|
|         348|  6.8357e-01|   -6.534899|   -2.568845|   -2.711297|    0.381623|
|         349|  6.8255e-01|   -6.536251|   -2.568874|   -2.711319|    0.379535|
|         350|  6.8151e-01|   -6.537204|   -2.568901|   -2.711322|    0.378071|
|         351|  6.8049e-01|   -6.537921|   -2.568926|   -2.711320|    0.376994|
|         352|  6.7947e-01|   -6.538705|   -2.568956|   -2.711317|    0.375815|
|         353|  6.7846e-01|   -6.539443|   -2.568987|   -2.711321|    0.374703|
|         354|  6.7745e-01|   -6.540451|   -2.569017|   -2.711351|    0.373169|
|         355|  6.7646e-01|   -6.542160|   -2.569053|   -2.711380|    0.370538|
|         356|  6.7557e-01|   -6.542992|   -2.569112|   -2.711355|    0.369352|
|         357|  6.7468e-01|   -6.543199|   -2.569152|   -2.711319|    0.369182|
|         358|  6.7381e-01|   -6.542979|   -2.569203|   -2.711232|    0.369677|
|         359|  6.7293e-01|   -6.543833|   -2.569256|   -2.711233|    0.368348|
|         360|  6.7205e-01|   -6.545594|   -2.569336|   -2.711181|    0.365658|
|         361|  6.7119e-01|   -6.542690|   -2.569358|   -2.710968|    0.370495|
|         362|  6.7033e-01|   -6.540556|   -2.569422|   -2.710753|    0.374198|
|         363|  6.6958e-01|   -6.545530|   -2.569483|   -2.710729|    0.366441|
|         364|  6.6884e-01|   -6.543406|   -2.569533|   -2.710439|    0.370141|
|         365|  6.6809e-01|   -6.539877|   -2.569520|   -2.710014|    0.376084|
|         366|  6.6737e-01|   -6.539235|   -2.569586|   -2.709701|    0.377450|
|         367|  6.6675e-01|   -6.535601|   -2.569504|   -2.709261|    0.383293|
|         368|  6.6613e-01|   -6.528657|   -2.569442|   -2.708440|    0.394094|
|         369|  6.6551e-01|   -6.527699|   -2.569292|   -2.707787|    0.395397|
|         370|  6.6501e-01|   -6.520596|   -2.568967|   -2.706665|    0.406101|
|         371|  6.6453e-01|   -6.506078|   -2.568607|   -2.704745|    0.427191|
|         372|  6.6414e-01|   -6.489550|   -2.568335|   -2.702936|    0.450691|
|         373|  6.6377e-01|   -6.480014|   -2.567619|   -2.700821|    0.463803|
|         374|  6.6350e-01|   -6.486399|   -2.567233|   -2.699669|    0.454607|
|         375|  6.6334e-01|   -6.469805|   -2.566242|   -2.697499|    0.476589|
|         376|  6.6318e-01|   -6.442304|   -2.564629|   -2.694090|    0.512106|
|         377|  6.6313e-01|   -6.444865|   -2.563158|   -2.691921|    0.506962|
|         378|  6.6332e-01|   -6.422364|   -2.560843|   -2.688679|    0.534275|
|         379|  6.6362e-01|   -6.401080|   -2.558384|   -2.685721|    0.559705|
|         380|  6.6405e-01|   -6.398775|   -2.554628|   -2.683263|    0.561379|
|         381|  6.6475e-01|   -6.373863|   -2.549897|   -2.679711|    0.589950|
|         382|  6.6567e-01|   -6.369155|   -2.545063|   -2.677842|    0.594704|
|         383|  6.6676e-01|   -6.344570|   -2.539159|   -2.672764|    0.624234|
|         384|  6.6789e-01|   -6.322604|   -2.533036|   -2.668691|    0.649975|
|         385|  6.6895e-01|   -6.336631|   -2.528646|   -2.666650|    0.633334|
|         386|  6.6999e-01|   -6.315737|   -2.523604|   -2.659793|    0.658296|
|         387|  6.7102e-01|   -6.310205|   -2.518549|   -2.655426|    0.664107|
|         388|  6.7204e-01|   -6.306058|   -2.514714|   -2.650938|    0.667921|
|         389|  6.7305e-01|   -6.300005|   -2.510723|   -2.646426|    0.674800|
|         390|  6.7407e-01|   -6.315132|   -2.506905|   -2.644009|    0.655670|
|         391|  6.7507e-01|   -6.312217|   -2.503054|   -2.640190|    0.658012|
|         392|  6.7608e-01|   -6.300193|   -2.499257|   -2.635695|    0.671973|
|         393|  6.7709e-01|   -6.306350|   -2.496959|   -2.633040|    0.663887|
|         394|  6.7812e-01|   -6.305093|   -2.494564|   -2.629956|    0.664171|
|         395|  6.7911e-01|   -6.311593|   -2.492770|   -2.627814|    0.655788|
|         396|  6.8010e-01|   -6.301225|   -2.490293|   -2.623954|    0.667379|
|         397|  6.8109e-01|   -6.297382|   -2.488587|   -2.622067|    0.671411|
|         398|  6.8210e-01|   -6.290073|   -2.487205|   -2.618502|    0.679524|
|         399|  6.8307e-01|   -6.296155|   -2.485500|   -2.618489|    0.671504|
|         400|  6.8403e-01|   -6.285740|   -2.483668|   -2.616074|    0.683817|
|         401|  6.8511e-01|   -6.277377|   -2.480855|   -2.614021|    0.694500|
|         402|  6.8618e-01|   -6.288790|   -2.478110|   -2.614398|    0.680455|
|         403|  6.8727e-01|   -6.279963|   -2.474984|   -2.613759|    0.691667|
|         404|  6.8834e-01|   -6.277152|   -2.471854|   -2.613530|    0.695023|
|         405|  6.8942e-01|   -6.278629|   -2.468480|   -2.612578|    0.693883|
|         406|  6.9069e-01|   -6.272698|   -2.464274|   -2.612540|    0.700709|
|         407|  6.9187e-01|   -6.269652|   -2.461089|   -2.612444|    0.704839|
|         408|  6.9297e-01|   -6.272801|   -2.458376|   -2.613197|    0.702188|
|         409|  6.9401e-01|   -6.264735|   -2.455457|   -2.612885|    0.711753|
|         410|  6.9506e-01|   -6.256667|   -2.453509|   -2.613020|    0.721031|
|         411|  6.9608e-01|   -6.244706|   -2.452748|   -2.613538|    0.735847|
|         412|  6.9714e-01|   -6.256064|   -2.452307|   -2.615426|    0.722818|
|         413|  6.9817e-01|   -6.258714|   -2.452263|   -2.616060|    0.720375|
|         414|  6.9919e-01|   -6.259705|   -2.452164|   -2.616797|    0.719449|
|         415|  7.0021e-01|   -6.261179|   -2.452274|   -2.617451|    0.718492|
|         416|  7.0123e-01|   -6.259089|   -2.451631|   -2.618099|    0.721257|
|         417|  7.0212e-01|   -6.244574|   -2.450477|   -2.616573|    0.737976|
|         418|  7.0300e-01|   -6.243334|   -2.450276|   -2.616931|    0.739585|
|         419|  7.0389e-01|   -6.248224|   -2.450871|   -2.617632|    0.734357|
|         420|  7.0476e-01|   -6.243884|   -2.450375|   -2.617282|    0.740162|
|         421|  7.0499e-01|   -6.246050|   -2.450705|   -2.616789|    0.738171|
|         422|  7.0475e-01|   -6.323652|   -2.457278|   -2.615682|    0.653324|
|         423|  7.0421e-01|   -6.381879|   -2.461204|   -2.614474|    0.586621|
|         424|  7.0359e-01|   -6.408941|   -2.463167|   -2.613842|    0.555355|
|         425|  7.0287e-01|   -6.441063|   -2.464127|   -2.614181|    0.515677|
|         426|  7.0207e-01|   -6.460375|   -2.464571|   -2.614237|    0.490718|
|         427|  7.0130e-01|   -6.473953|   -2.464775|   -2.614507|    0.472918|
|         428|  7.0042e-01|   -6.478599|   -2.464870|   -2.614605|    0.466677|
|         429|  6.9953e-01|   -6.480920|   -2.464925|   -2.614660|    0.463564|
|         430|  6.9870e-01|   -6.481873|   -2.464950|   -2.614678|    0.462294|
|         431|  6.9782e-01|   -6.482306|   -2.464961|   -2.614686|    0.461716|
|         432|  6.9695e-01|   -6.482536|   -2.464968|   -2.614690|    0.461408|
|         433|  6.9608e-01|   -6.482694|   -2.464972|   -2.614693|    0.461198|
|         434|  6.9522e-01|   -6.482842|   -2.464977|   -2.614695|    0.461000|
|         435|  6.9435e-01|   -6.482977|   -2.464981|   -2.614698|    0.460820|
|         436|  6.9349e-01|   -6.483107|   -2.464985|   -2.614700|    0.460648|
|         437|  6.9264e-01|   -6.483234|   -2.464989|   -2.614702|    0.460478|
|         438|  6.9179e-01|   -6.483368|   -2.464993|   -2.614705|    0.460301|
|         439|  6.9094e-01|   -6.483508|   -2.464997|   -2.614707|    0.460116|
|         440|  6.9010e-01|   -6.483643|   -2.465001|   -2.614709|    0.459937|
|         441|  6.8925e-01|   -6.483772|   -2.465005|   -2.614710|    0.459766|
|         442|  6.8842e-01|   -6.483896|   -2.465008|   -2.614712|    0.459603|
|         443|  6.8759e-01|   -6.484014|   -2.465012|   -2.614713|    0.459447|
|         444|  6.8676e-01|   -6.484133|   -2.465016|   -2.614714|    0.459290|
|         445|  6.8594e-01|   -6.484255|   -2.465019|   -2.614716|    0.459128|
|         446|  6.8511e-01|   -6.484375|   -2.465022|   -2.614718|    0.458971|
|         447|  6.8430e-01|   -6.484490|   -2.465026|   -2.614720|    0.458819|
|         448|  6.8348e-01|   -6.484602|   -2.465029|   -2.614721|    0.458671|
|         449|  6.8269e-01|   -6.484714|   -2.465033|   -2.614722|    0.458524|
|         450|  6.8188e-01|   -6.484826|   -2.465036|   -2.614723|    0.458376|
|         451|  6.8109e-01|   -6.484939|   -2.465040|   -2.614724|    0.458228|
|         452|  6.8028e-01|   -6.485051|   -2.465043|   -2.614725|    0.458081|
|         453|  6.7949e-01|   -6.485163|   -2.465047|   -2.614726|    0.457933|
|         454|  6.7869e-01|   -6.485275|   -2.465051|   -2.614727|    0.457784|
|         455|  6.7790e-01|   -6.485387|   -2.465054|   -2.614727|    0.457636|
|         456|  6.7712e-01|   -6.485500|   -2.465058|   -2.614728|    0.457487|
|         457|  6.7634e-01|   -6.485614|   -2.465061|   -2.614728|    0.457335|
|         458|  6.7556e-01|   -6.485733|   -2.465065|   -2.614729|    0.457176|
|         459|  6.7479e-01|   -6.485864|   -2.465069|   -2.614730|    0.457002|
|         460|  6.7402e-01|   -6.486042|   -2.465074|   -2.614731|    0.456765|
|         461|  6.7325e-01|   -6.486263|   -2.465080|   -2.614733|    0.456471|
|         462|  6.7248e-01|   -6.486529|   -2.465088|   -2.614735|    0.456119|
|         463|  6.7173e-01|   -6.486863|   -2.465098|   -2.614740|    0.455674|
|         464|  6.7097e-01|   -6.487254|   -2.465110|   -2.614746|    0.455156|
|         465|  6.7021e-01|   -6.487668|   -2.465123|   -2.614750|    0.454608|
|         466|  6.6946e-01|   -6.488094|   -2.465139|   -2.614752|    0.454048|
|         467|  6.6871e-01|   -6.488535|   -2.465157|   -2.614751|    0.453470|
|         468|  6.6796e-01|   -6.489006|   -2.465178|   -2.614745|    0.452859|
|         469|  6.6722e-01|   -6.489485|   -2.465203|   -2.614737|    0.452247|
|         470|  6.6648e-01|   -6.489943|   -2.465231|   -2.614724|    0.451679|
|         471|  6.6574e-01|   -6.490199|   -2.465261|   -2.614698|    0.451407|
|         472|  6.6501e-01|   -6.490782|   -2.465293|   -2.614673|    0.450663|
|         473|  6.6428e-01|   -6.491541|   -2.465337|   -2.614643|    0.449677|
|         474|  6.6356e-01|   -6.491836|   -2.465382|   -2.614589|    0.449360|
|         475|  6.6292e-01|   -6.493522|   -2.465436|   -2.614572|    0.447129|
|         476|  6.6229e-01|   -6.494754|   -2.465489|   -2.614535|    0.445502|
|         477|  6.6165e-01|   -6.494962|   -2.465529|   -2.614445|    0.445290|
|         478|  6.6121e-01|   -6.494402|   -2.465561|   -2.614357|    0.446148|
|         479|  6.6074e-01|   -6.494073|   -2.465639|   -2.614218|    0.446721|
|         480|  6.6013e-01|   -6.492978|   -2.465656|   -2.613980|    0.448266|
|         481|  6.5951e-01|   -6.492799|   -2.465700|   -2.613834|    0.448400|
|         482|  6.5897e-01|   -6.491793|   -2.465754|   -2.613601|    0.449783|
|         483|  6.5844e-01|   -6.494083|   -2.465806|   -2.613393|    0.446711|
|         484|  6.5790e-01|   -6.485144|   -2.465776|   -2.613017|    0.458739|
|         485|  6.5737e-01|   -6.484600|   -2.465820|   -2.612490|    0.459013|
|         486|  6.5692e-01|   -6.477504|   -2.465736|   -2.611846|    0.468272|
|         487|  6.5647e-01|   -6.464151|   -2.465641|   -2.611056|    0.485746|
|         488|  6.5603e-01|   -6.465343|   -2.465589|   -2.610474|    0.483502|
|         489|  6.5567e-01|   -6.456635|   -2.465582|   -2.609478|    0.494614|
|         490|  6.5531e-01|   -6.447597|   -2.465415|   -2.607984|    0.506340|
|         491|  6.5504e-01|   -6.431548|   -2.465138|   -2.605726|    0.526918|
|         492|  6.5477e-01|   -6.414758|   -2.464676|   -2.604000|    0.548122|
|         493|  6.5459e-01|   -6.408597|   -2.463772|   -2.602076|    0.555574|
|         494|  6.5449e-01|   -6.403666|   -2.463143|   -2.600650|    0.561287|
|         495|  6.5447e-01|   -6.390860|   -2.462121|   -2.598849|    0.576329|
|         496|  6.5456e-01|   -6.378601|   -2.460201|   -2.597560|    0.589680|
|         497|  6.5473e-01|   -6.361559|   -2.457594|   -2.596881|    0.608969|
|         498|  6.5499e-01|   -6.344485|   -2.454208|   -2.596448|    0.628031|
|         499|  6.5537e-01|   -6.322346|   -2.451142|   -2.595891|    0.653368|
|         500|  6.5595e-01|   -6.321623|   -2.447872|   -2.596830|    0.654163|
+-----------------------------------------------------------------------+
|        File Writing Summary       |              Filename             |
+-----------------------------------------------------------------------+
|SU2 binary restart                 |restart_flow.dat                   |
|Paraview                           |flow.vtu                           |
|CSV file                           |surface_flow.csv                   |
+-----------------------------------------------------------------------+
+-----------------------------------------------------------------------------+
|  Inner_Iter|   Time(sec)|    rms[Rho]|   rms[RhoU]|   rms[RhoV]|   rms[RhoE]|
+-----------------------------------------------------------------------------+
|         501|  6.5720e-01|   -6.298351|   -2.445236|   -2.595654|    0.682203|
|         502|  6.5813e-01|   -6.290398|   -2.443196|   -2.595697|    0.693220|
|         503|  6.5908e-01|   -6.291801|   -2.442091|   -2.597902|    0.693964|
|         504|  6.6000e-01|   -6.276114|   -2.443649|   -2.598171|    0.712921|
|         505|  6.6093e-01|   -6.276731|   -2.443631|   -2.601372|    0.714363|
|         506|  6.6184e-01|   -6.283602|   -2.444185|   -2.604631|    0.708936|
|         507|  6.6276e-01|   -6.277470|   -2.443724|   -2.607563|    0.716301|
|         508|  6.6358e-01|   -6.270103|   -2.442596|   -2.609214|    0.724777|
|         509|  6.6440e-01|   -6.247950|   -2.440451|   -2.608838|    0.747996|
|         510|  6.6521e-01|   -6.248267|   -2.439704|   -2.609409|    0.745552|
|         511|  6.6601e-01|   -6.247144|   -2.438120|   -2.609246|    0.745335|
|         512|  6.6682e-01|   -6.230037|   -2.436906|   -2.605228|    0.762349|
|         513|  6.6761e-01|   -6.229514|   -2.435750|   -2.603409|    0.760714|
|         514|  6.6841e-01|   -6.233212|   -2.434919|   -2.601660|    0.755073|
|         515|  6.6920e-01|   -6.231704|   -2.434629|   -2.599371|    0.756099|
|         516|  6.6999e-01|   -6.245942|   -2.433899|   -2.598695|    0.740002|
|         517|  6.7082e-01|   -6.248859|   -2.433829|   -2.597195|    0.735769|
|         518|  6.7160e-01|   -6.252463|   -2.433579|   -2.595847|    0.731564|
|         519|  6.7239e-01|   -6.271158|   -2.433551|   -2.596875|    0.709886|
|         520|  6.7316e-01|   -6.275638|   -2.433226|   -2.596240|    0.705177|
|         521|  6.7394e-01|   -6.274314|   -2.432430|   -2.595114|    0.707627|
|         522|  6.7472e-01|   -6.275449|   -2.432150|   -2.594343|    0.706477|
|         523|  6.7549e-01|   -6.283304|   -2.431974|   -2.594947|    0.698905|
|         524|  6.7626e-01|   -6.289684|   -2.431790|   -2.595050|    0.692841|
|         525|  6.7703e-01|   -6.294066|   -2.431034|   -2.594638|    0.688447|
|         526|  6.7778e-01|   -6.298566|   -2.429962|   -2.594824|    0.684794|
|         527|  6.7855e-01|   -6.301455|   -2.428921|   -2.594606|    0.682500|
|         528|  6.7930e-01|   -6.305372|   -2.427551|   -2.594832|    0.678996|
|         529|  6.8005e-01|   -6.302045|   -2.425509|   -2.594832|    0.683590|
|         530|  6.8081e-01|   -6.306570|   -2.423519|   -2.594380|    0.679676|
|         531|  6.8156e-01|   -6.305682|   -2.420859|   -2.594156|    0.682401|
|         532|  6.8231e-01|   -6.303715|   -2.418360|   -2.593057|    0.686044|
|         533|  6.8306e-01|   -6.308476|   -2.415979|   -2.592748|    0.682451|
|         534|  6.8380e-01|   -6.310392|   -2.413232|   -2.593503|    0.682267|
|         535|  6.8454e-01|   -6.306694|   -2.411016|   -2.593793|    0.687789|
|         536|  6.8530e-01|   -6.293896|   -2.408312|   -2.593359|    0.703672|
|         537|  6.8612e-01|   -6.312470|   -2.406334|   -2.595313|    0.685331|
|         538|  6.8694e-01|   -6.312439|   -2.405203|   -2.596074|    0.686214|
|         539|  6.8774e-01|   -6.321636|   -2.404534|   -2.597737|    0.677484|
|         540|  6.8855e-01|   -6.329345|   -2.403833|   -2.599536|    0.671111|
|         541|  6.8934e-01|   -6.325394|   -2.403566|   -2.600450|    0.675698|
|         542|  6.8954e-01|   -6.324443|   -2.404178|   -2.601793|    0.676175|
|         543|  6.8938e-01|   -6.377131|   -2.406263|   -2.602617|    0.616516|
|         544|  6.8905e-01|   -6.423870|   -2.407541|   -2.603189|    0.562869|
|         545|  6.8859e-01|   -6.444893|   -2.408341|   -2.603313|    0.537605|
|         546|  6.8806e-01|   -6.494626|   -2.408959|   -2.604506|    0.479005|
|         547|  6.8772e-01|   -6.501894|   -2.409182|   -2.604394|    0.470183|
|         548|  6.8719e-01|   -6.509472|   -2.409247|   -2.604331|    0.460833|
|         549|  6.8653e-01|   -6.516699|   -2.409278|   -2.604442|    0.451998|
|         550|  6.8587e-01|   -6.519771|   -2.409276|   -2.604502|    0.448182|
|         551|  6.8520e-01|   -6.521912|   -2.409281|   -2.604554|    0.445550|
|         552|  6.8454e-01|   -6.522902|   -2.409285|   -2.604581|    0.444325|
|         553|  6.8388e-01|   -6.523370|   -2.409286|   -2.604595|    0.443745|
|         554|  6.8323e-01|   -6.523696|   -2.409287|   -2.604605|    0.443340|
|         555|  6.8257e-01|   -6.523998|   -2.409288|   -2.604615|    0.442964|
|         556|  6.8192e-01|   -6.524278|   -2.409289|   -2.604624|    0.442615|
|         557|  6.8126e-01|   -6.524548|   -2.409290|   -2.604633|    0.442281|
|         558|  6.8062e-01|   -6.524820|   -2.409291|   -2.604643|    0.441943|
|         559|  6.7997e-01|   -6.525095|   -2.409292|   -2.604652|    0.441604|
|         560|  6.7932e-01|   -6.525367|   -2.409293|   -2.604660|    0.441267|
|         561|  6.7869e-01|   -6.525658|   -2.409295|   -2.604669|    0.440906|
|         562|  6.7804e-01|   -6.525919|   -2.409296|   -2.604677|    0.440581|
|         563|  6.7741e-01|   -6.526194|   -2.409297|   -2.604685|    0.440240|
|         564|  6.7678e-01|   -6.526491|   -2.409298|   -2.604695|    0.439871|
|         565|  6.7614e-01|   -6.526793|   -2.409300|   -2.604705|    0.439497|
|         566|  6.7551e-01|   -6.527085|   -2.409301|   -2.604715|    0.439135|
|         567|  6.7488e-01|   -6.527365|   -2.409302|   -2.604725|    0.438788|
|         568|  6.7426e-01|   -6.527628|   -2.409303|   -2.604734|    0.438461|
|         569|  6.7364e-01|   -6.527872|   -2.409305|   -2.604743|    0.438157|
|         570|  6.7301e-01|   -6.528131|   -2.409306|   -2.604752|    0.437835|
|         571|  6.7240e-01|   -6.528435|   -2.409308|   -2.604761|    0.437455|
|         572|  6.7178e-01|   -6.528771|   -2.409311|   -2.604772|    0.437037|
|         573|  6.7117e-01|   -6.529109|   -2.409313|   -2.604782|    0.436616|
|         574|  6.7055e-01|   -6.529435|   -2.409315|   -2.604792|    0.436212|
|         575|  6.6994e-01|   -6.529725|   -2.409317|   -2.604801|    0.435853|
|         576|  6.6933e-01|   -6.529969|   -2.409319|   -2.604809|    0.435552|
|         577|  6.6873e-01|   -6.530174|   -2.409321|   -2.604816|    0.435300|
|         578|  6.6813e-01|   -6.530349|   -2.409322|   -2.604822|    0.435084|
|         579|  6.6752e-01|   -6.530506|   -2.409324|   -2.604827|    0.434891|
|         580|  6.6692e-01|   -6.530651|   -2.409325|   -2.604833|    0.434713|
|         581|  6.6634e-01|   -6.530789|   -2.409327|   -2.604837|    0.434544|
|         582|  6.6574e-01|   -6.530920|   -2.409328|   -2.604842|    0.434383|
|         583|  6.6515e-01|   -6.531047|   -2.409329|   -2.604847|    0.434226|
|         584|  6.6456e-01|   -6.531194|   -2.409330|   -2.604852|    0.434045|
|         585|  6.6401e-01|   -6.531357|   -2.409332|   -2.604858|    0.433845|
|         586|  6.6343e-01|   -6.531519|   -2.409333|   -2.604865|    0.433645|
|         587|  6.6284e-01|   -6.531615|   -2.409334|   -2.604872|    0.433526|
|         588|  6.6226e-01|   -6.531499|   -2.409333|   -2.604877|    0.433670|
|         589|  6.6168e-01|   -6.531416|   -2.409334|   -2.604878|    0.433769|
|         590|  6.6110e-01|   -6.531659|   -2.409337|   -2.604882|    0.433462|
|         591|  6.6052e-01|   -6.532146|   -2.409345|   -2.604890|    0.432859|
|         592|  6.5995e-01|   -6.532787|   -2.409354|   -2.604900|    0.432067|
|         593|  6.5939e-01|   -6.533898|   -2.409363|   -2.604916|    0.430676|
|         594|  6.5881e-01|   -6.535016|   -2.409375|   -2.604937|    0.429265|
|         595|  6.5824e-01|   -6.536221|   -2.409386|   -2.604967|    0.427716|
|         596|  6.5768e-01|   -6.537634|   -2.409400|   -2.605019|    0.425915|
|         597|  6.5711e-01|   -6.538440|   -2.409409|   -2.605059|    0.424885|
|         598|  6.5661e-01|   -6.538730|   -2.409413|   -2.605072|    0.424521|
|         599|  6.5612e-01|   -6.537041|   -2.409419|   -2.605014|    0.426705|
|         600|  6.5562e-01|   -6.533804|   -2.409406|   -2.604890|    0.430808|
|         601|  6.5513e-01|   -6.537482|   -2.409397|   -2.604999|    0.426305|
|         602|  6.5458e-01|   -6.544259|   -2.409410|   -2.605244|    0.417779|
|         603|  6.5409e-01|   -6.544809|   -2.409414|   -2.605255|    0.417052|
|         604|  6.5360e-01|   -6.545698|   -2.409411|   -2.605250|    0.415934|
|         605|  6.5311e-01|   -6.545069|   -2.409389|   -2.605222|    0.416754|
|         606|  6.5263e-01|   -6.544932|   -2.409352|   -2.605221|    0.416846|
|         607|  6.5214e-01|   -6.544481|   -2.409335|   -2.605183|    0.417366|
|         608|  6.5166e-01|   -6.545098|   -2.409295|   -2.605148|    0.416528|
|         609|  6.5118e-01|   -6.544527|   -2.409222|   -2.605093|    0.417208|
|         610|  6.5071e-01|   -6.544515|   -2.409111|   -2.605039|    0.417194|
|         611|  6.5034e-01|   -6.538564|   -2.408958|   -2.605012|    0.424798|
|         612|  6.4993e-01|   -6.536997|   -2.408893|   -2.604897|    0.426501|
|         613|  6.4954e-01|   -6.542033|   -2.408782|   -2.605095|    0.419993|
|         614|  6.4913e-01|   -6.528854|   -2.408587|   -2.604759|    0.435927|
|         615|  6.4880e-01|   -6.527962|   -2.408260|   -2.604656|    0.436562|
|         616|  6.4847e-01|   -6.517506|   -2.407828|   -2.604281|    0.449440|
|         617|  6.4814e-01|   -6.509814|   -2.407513|   -2.603883|    0.458829|
|         618|  6.4787e-01|   -6.519021|   -2.406989|   -2.603802|    0.447374|
|         619|  6.4761e-01|   -6.515052|   -2.406443|   -2.603152|    0.452958|
|         620|  6.4742e-01|   -6.497447|   -2.405622|   -2.601819|    0.475456|
|         621|  6.4730e-01|   -6.493245|   -2.404717|   -2.600704|    0.482195|
|         622|  6.4717e-01|   -6.472258|   -2.403687|   -2.598554|    0.508932|
|         623|  6.4711e-01|   -6.456112|   -2.402514|   -2.596372|    0.529287|
|         624|  6.4712e-01|   -6.469427|   -2.401142|   -2.595457|    0.516529|
|         625|  6.4721e-01|   -6.451285|   -2.399441|   -2.592955|    0.539201|
|         626|  6.4737e-01|   -6.443705|   -2.397783|   -2.590686|    0.548888|
|         627|  6.4760e-01|   -6.414034|   -2.396240|   -2.587356|    0.581708|
|         628|  6.4797e-01|   -6.401309|   -2.394177|   -2.585237|    0.595639|
|         629|  6.4851e-01|   -6.389531|   -2.391312|   -2.582907|    0.609133|
|         630|  6.4920e-01|   -6.358656|   -2.389789|   -2.579383|    0.642775|
|         631|  6.4997e-01|   -6.327454|   -2.387894|   -2.577065|    0.676906|
|         632|  6.5073e-01|   -6.305138|   -2.386738|   -2.576282|    0.699669|
|         633|  6.5150e-01|   -6.286631|   -2.388129|   -2.575147|    0.717789|
|         634|  6.5226e-01|   -6.289835|   -2.389301|   -2.576803|    0.712416|
|         635|  6.5303e-01|   -6.288170|   -2.390630|   -2.577682|    0.713731|
|         636|  6.5382e-01|   -6.278527|   -2.393091|   -2.579301|    0.724039|
|         637|  6.5456e-01|   -6.273551|   -2.394340|   -2.579745|    0.728832|
|         638|  6.5524e-01|   -6.263097|   -2.396083|   -2.579905|    0.739842|
|         639|  6.5591e-01|   -6.272474|   -2.397075|   -2.581655|    0.730047|
|         640|  6.5659e-01|   -6.267403|   -2.398052|   -2.582143|    0.736043|
|         641|  6.5726e-01|   -6.271682|   -2.398787|   -2.583434|    0.732183|
|         642|  6.5793e-01|   -6.278352|   -2.399504|   -2.585803|    0.726149|
|         643|  6.5857e-01|   -6.283205|   -2.400654|   -2.587954|    0.722131|
|         644|  6.5922e-01|   -6.287732|   -2.402046|   -2.590828|    0.718405|
|         645|  6.5985e-01|   -6.290612|   -2.402932|   -2.593090|    0.716562|
|         646|  6.6049e-01|   -6.283533|   -2.403681|   -2.593804|    0.725147|
|         647|  6.6114e-01|   -6.298210|   -2.403967|   -2.596967|    0.711746|
|         648|  6.6178e-01|   -6.311612|   -2.404896|   -2.598369|    0.698604|
|         649|  6.6240e-01|   -6.315555|   -2.405867|   -2.599710|    0.694034|
|         650|  6.6304e-01|   -6.317088|   -2.406699|   -2.601822|    0.692464|
|         651|  6.6367e-01|   -6.317476|   -2.407237|   -2.603448|    0.692925|
|         652|  6.6429e-01|   -6.319435|   -2.407926|   -2.604313|    0.690636|
|         653|  6.6491e-01|   -6.320373|   -2.408414|   -2.605162|    0.688858|
|         654|  6.6555e-01|   -6.314070|   -2.408717|   -2.605080|    0.694656|
|         655|  6.6640e-01|   -6.317280|   -2.408806|   -2.605428|    0.690529|
|         656|  6.6705e-01|   -6.309220|   -2.408365|   -2.605102|    0.698277|
|         657|  6.6767e-01|   -6.306986|   -2.408690|   -2.604959|    0.699144|
|         658|  6.6828e-01|   -6.294228|   -2.408152|   -2.604269|    0.711460|
|         659|  6.6889e-01|   -6.289016|   -2.407782|   -2.603336|    0.715850|
|         660|  6.6949e-01|   -6.276432|   -2.407182|   -2.601624|    0.727682|
|         661|  6.7012e-01|   -6.271345|   -2.406425|   -2.600264|    0.732182|
|         662|  6.7072e-01|   -6.263116|   -2.405442|   -2.598936|    0.739739|
|         663|  6.7133e-01|   -6.263215|   -2.404892|   -2.598148|    0.738422|
|         664|  6.7193e-01|   -6.248400|   -2.404375|   -2.596039|    0.752879|
|         665|  6.7210e-01|   -6.247271|   -2.403538|   -2.595672|    0.753532|
|         666|  6.7201e-01|   -6.307670|   -2.408185|   -2.593406|    0.688955|
|         667|  6.7172e-01|   -6.367455|   -2.410193|   -2.593069|    0.623239|
|         668|  6.7138e-01|   -6.401680|   -2.410890|   -2.592591|    0.585347|
|         669|  6.7097e-01|   -6.428769|   -2.411259|   -2.592866|    0.554749|
|         670|  6.7051e-01|   -6.438554|   -2.411323|   -2.592841|    0.543671|
|         671|  6.7004e-01|   -6.443781|   -2.411358|   -2.592789|    0.537739|
|         672|  6.6952e-01|   -6.447390|   -2.411394|   -2.592869|    0.533601|
|         673|  6.6900e-01|   -6.448766|   -2.411419|   -2.592882|    0.532026|
|         674|  6.6848e-01|   -6.449432|   -2.411429|   -2.592884|    0.531268|
|         675|  6.6796e-01|   -6.449763|   -2.411432|   -2.592885|    0.530892|
|         676|  6.6745e-01|   -6.449933|   -2.411434|   -2.592886|    0.530697|
|         677|  6.6693e-01|   -6.450053|   -2.411436|   -2.592886|    0.530560|
|         678|  6.6642e-01|   -6.450176|   -2.411437|   -2.592888|    0.530419|
|         679|  6.6591e-01|   -6.450310|   -2.411438|   -2.592889|    0.530265|
|         680|  6.6539e-01|   -6.450452|   -2.411440|   -2.592892|    0.530102|
|         681|  6.6489e-01|   -6.450603|   -2.411441|   -2.592895|    0.529928|
|         682|  6.6438e-01|   -6.450764|   -2.411442|   -2.592899|    0.529743|
|         683|  6.6388e-01|   -6.450947|   -2.411444|   -2.592904|    0.529532|
|         684|  6.6337e-01|   -6.451143|   -2.411446|   -2.592909|    0.529307|
|         685|  6.6287e-01|   -6.451337|   -2.411448|   -2.592914|    0.529083|
|         686|  6.6236e-01|   -6.451520|   -2.411450|   -2.592919|    0.528872|
|         687|  6.6187e-01|   -6.451685|   -2.411451|   -2.592923|    0.528682|
|         688|  6.6137e-01|   -6.451831|   -2.411453|   -2.592927|    0.528514|
|         689|  6.6087e-01|   -6.451960|   -2.411454|   -2.592930|    0.528366|
|         690|  6.6037e-01|   -6.452074|   -2.411455|   -2.592932|    0.528235|
|         691|  6.5988e-01|   -6.452198|   -2.411455|   -2.592934|    0.528093|
|         692|  6.5939e-01|   -6.452336|   -2.411456|   -2.592936|    0.527936|
|         693|  6.5890e-01|   -6.452493|   -2.411457|   -2.592937|    0.527757|
|         694|  6.5841e-01|   -6.452679|   -2.411457|   -2.592939|    0.527544|
|         695|  6.5794e-01|   -6.452914|   -2.411458|   -2.592940|    0.527275|
|         696|  6.5745e-01|   -6.453230|   -2.411460|   -2.592944|    0.526913|
|         697|  6.5697e-01|   -6.453637|   -2.411463|   -2.592948|    0.526445|
|         698|  6.5648e-01|   -6.454293|   -2.411470|   -2.592953|    0.525709|
|         699|  6.5600e-01|   -6.454995|   -2.411476|   -2.592960|    0.524911|
|         700|  6.5552e-01|   -6.455835|   -2.411481|   -2.592972|    0.523945|
|         701|  6.5504e-01|   -6.456698|   -2.411487|   -2.592985|    0.522953|
|         702|  6.5456e-01|   -6.457634|   -2.411490|   -2.592997|    0.521879|
|         703|  6.5408e-01|   -6.458723|   -2.411489|   -2.593005|    0.520635|
|         704|  6.5361e-01|   -6.460117|   -2.411487|   -2.593020|    0.519058|
|         705|  6.5313e-01|   -6.461580|   -2.411489|   -2.593019|    0.517438|
|         706|  6.5272e-01|   -6.463210|   -2.411482|   -2.593025|    0.515592|
|         707|  6.5230e-01|   -6.464992|   -2.411466|   -2.593039|    0.513557|
|         708|  6.5188e-01|   -6.466747|   -2.411458|   -2.593050|    0.511551|
|         709|  6.5147e-01|   -6.467915|   -2.411436|   -2.593040|    0.510248|
|         710|  6.5105e-01|   -6.466951|   -2.411373|   -2.592925|    0.511421|
|         711|  6.5064e-01|   -6.467392|   -2.411334|   -2.592850|    0.510977|
|         712|  6.5023e-01|   -6.465681|   -2.411273|   -2.592674|    0.513032|
|         713|  6.4988e-01|   -6.465961|   -2.411175|   -2.592521|    0.512710|
|         714|  6.4952e-01|   -6.463613|   -2.411016|   -2.592219|    0.515476|
|         715|  6.4917e-01|   -6.460110|   -2.410743|   -2.591896|    0.519228|
|         716|  6.4882e-01|   -6.457279|   -2.410672|   -2.591633|    0.522199|
|         717|  6.4853e-01|   -6.457104|   -2.410449|   -2.591347|    0.522135|
|         718|  6.4823e-01|   -6.453936|   -2.410050|   -2.590854|    0.525454|
|         719|  6.4794e-01|   -6.442122|   -2.409617|   -2.589835|    0.538442|
|         720|  6.4771e-01|   -6.442358|   -2.409020|   -2.589181|    0.537814|
|         721|  6.4748e-01|   -6.431000|   -2.408195|   -2.588129|    0.550874|
|         722|  6.4732e-01|   -6.422980|   -2.407257|   -2.586789|    0.560159|
|         723|  6.4714e-01|   -6.415250|   -2.405997|   -2.585164|    0.569692|
|         724|  6.4703e-01|   -6.407537|   -2.404693|   -2.583091|    0.579634|
|         725|  6.4698e-01|   -6.389900|   -2.403134|   -2.580219|    0.600455|
|         726|  6.4692e-01|   -6.375329|   -2.401459|   -2.577373|    0.616988|
|         727|  6.4692e-01|   -6.366483|   -2.399345|   -2.574805|    0.626603|
|         728|  6.4704e-01|   -6.352378|   -2.396738|   -2.572476|    0.640700|
|         729|  6.4723e-01|   -6.341479|   -2.394026|   -2.570176|    0.650754|
|         730|  6.4747e-01|   -6.325588|   -2.390671|   -2.567947|    0.666602|
|         731|  6.4786e-01|   -6.296191|   -2.387307|   -2.565232|    0.697305|
|         732|  6.4836e-01|   -6.262759|   -2.383346|   -2.562819|    0.732297|
|         733|  6.4894e-01|   -6.237496|   -2.380656|   -2.561888|    0.756646|
|         734|  6.4951e-01|   -6.209087|   -2.378430|   -2.562058|    0.783481|
|         735|  6.5012e-01|   -6.210326|   -2.379659|   -2.562172|    0.780062|
|         736|  6.5069e-01|   -6.219830|   -2.382196|   -2.563023|    0.769166|
|         737|  6.5126e-01|   -6.227069|   -2.384842|   -2.564029|    0.761587|
|         738|  6.5183e-01|   -6.237845|   -2.388791|   -2.566395|    0.750140|
|         739|  6.5240e-01|   -6.233430|   -2.391300|   -2.568585|    0.756853|
|         740|  6.5297e-01|   -6.243654|   -2.393448|   -2.572041|    0.747468|
|         741|  6.5353e-01|   -6.239181|   -2.395416|   -2.575280|    0.754189|
|         742|  6.5411e-01|   -6.245553|   -2.397247|   -2.579662|    0.748828|
|         743|  6.5467e-01|   -6.233923|   -2.398730|   -2.582537|    0.762439|
|         744|  6.5525e-01|   -6.230735|   -2.400124|   -2.585205|    0.766296|
|         745|  6.5581e-01|   -6.210136|   -2.400320|   -2.587313|    0.787086|
|         746|  6.5637e-01|   -6.203278|   -2.401055|   -2.589553|    0.793278|
|         747|  6.5694e-01|   -6.194269|   -2.402075|   -2.589699|    0.801067|
|         748|  6.5749e-01|   -6.189473|   -2.402398|   -2.591188|    0.804604|
|         749|  6.5803e-01|   -6.180636|   -2.403534|   -2.591098|    0.812214|
|         750|  6.5858e-01|   -6.178902|   -2.406415|   -2.590567|    0.812437|
+-----------------------------------------------------------------------+
|        File Writing Summary       |              Filename             |
+-----------------------------------------------------------------------+
|SU2 binary restart                 |restart_flow.dat                   |
|Paraview                           |flow.vtu                           |
|CSV file                           |surface_flow.csv                   |
+-----------------------------------------------------------------------+
+-----------------------------------------------------------------------------+
|  Inner_Iter|   Time(sec)|    rms[Rho]|   rms[RhoU]|   rms[RhoV]|   rms[RhoE]|
+-----------------------------------------------------------------------------+
|         751|  6.5942e-01|   -6.178379|   -2.407171|   -2.590942|    0.812197|
|         752|  6.6020e-01|   -6.176673|   -2.410600|   -2.588865|    0.813632|
|         753|  6.6077e-01|   -6.191665|   -2.413475|   -2.590994|    0.796369|
|         754|  6.6131e-01|   -6.193114|   -2.416498|   -2.590882|    0.795629|
|         755|  6.6186e-01|   -6.196906|   -2.420359|   -2.591122|    0.792522|
|         756|  6.6240e-01|   -6.203766|   -2.424036|   -2.592186|    0.785851|
|         757|  6.6295e-01|   -6.208253|   -2.427128|   -2.593114|    0.781701|
|         758|  6.6349e-01|   -6.209492|   -2.429491|   -2.595100|    0.779702|
|         759|  6.6403e-01|   -6.203861|   -2.432482|   -2.595642|    0.785150|
|         760|  6.6456e-01|   -6.212248|   -2.435594|   -2.598135|    0.775257|
|         761|  6.6510e-01|   -6.210894|   -2.438919|   -2.599892|    0.775635|
|         762|  6.6563e-01|   -6.215469|   -2.441604|   -2.602507|    0.770306|
|         763|  6.6616e-01|   -6.226007|   -2.443851|   -2.604630|    0.758273|
|         764|  6.6669e-01|   -6.227072|   -2.446131|   -2.605028|    0.757428|
|         765|  6.6722e-01|   -6.233274|   -2.447627|   -2.606076|    0.751381|
|         766|  6.6775e-01|   -6.251164|   -2.449346|   -2.608109|    0.732374|
|         767|  6.6828e-01|   -6.268240|   -2.450758|   -2.609641|    0.714661|
|         768|  6.6882e-01|   -6.275953|   -2.452369|   -2.610348|    0.708499|
|         769|  6.6934e-01|   -6.285350|   -2.454167|   -2.611469|    0.700487|
|         770|  6.6986e-01|   -6.294827|   -2.455921|   -2.613146|    0.692366|
|         771|  6.7037e-01|   -6.307484|   -2.457310|   -2.615063|    0.681145|
|         772|  6.7090e-01|   -6.316175|   -2.459366|   -2.617000|    0.674071|
|         773|  6.7142e-01|   -6.325202|   -2.460808|   -2.619573|    0.666446|
|         774|  6.7194e-01|   -6.334700|   -2.463276|   -2.622157|    0.658049|
|         775|  6.7247e-01|   -6.339912|   -2.465393|   -2.624680|    0.654243|
|         776|  6.7299e-01|   -6.350401|   -2.467491|   -2.627991|    0.644880|
|         777|  6.7352e-01|   -6.350857|   -2.470229|   -2.631749|    0.646099|
|         778|  6.7404e-01|   -6.365491|   -2.472890|   -2.636032|    0.631521|
|         779|  6.7456e-01|   -6.364306|   -2.475735|   -2.639472|    0.634183|
|         780|  6.7507e-01|   -6.371558|   -2.478229|   -2.643588|    0.626896|
|         781|  6.7560e-01|   -6.376856|   -2.480658|   -2.646623|    0.621348|
|         782|  6.7613e-01|   -6.374133|   -2.483304|   -2.650239|    0.624137|
|         783|  6.7666e-01|   -6.351670|   -2.484450|   -2.651723|    0.647886|
|         784|  6.7716e-01|   -6.361432|   -2.486534|   -2.654866|    0.637386|
|         785|  6.7766e-01|   -6.360672|   -2.488971|   -2.657107|    0.637372|
|         786|  6.7815e-01|   -6.364585|   -2.491046|   -2.659039|    0.632100|
|         787|  6.7865e-01|   -6.356002|   -2.492704|   -2.660192|    0.640121|
|         788|  6.7916e-01|   -6.352890|   -2.494376|   -2.659791|    0.641453|
|         789|  6.7966e-01|   -6.346799|   -2.496478|   -2.660070|    0.646445|
|         790|  6.8017e-01|   -6.341413|   -2.498587|   -2.659773|    0.651531|
|         791|  6.8069e-01|   -6.337029|   -2.501452|   -2.659217|    0.655058|
|         792|  6.8119e-01|   -6.326242|   -2.503231|   -2.658624|    0.665734|
|         793|  6.8169e-01|   -6.313983|   -2.505024|   -2.656767|    0.678401|
|         794|  6.8218e-01|   -6.298743|   -2.507104|   -2.655036|    0.694084|
|         795|  6.8267e-01|   -6.281033|   -2.508638|   -2.652890|    0.712354|
|         796|  6.8317e-01|   -6.286362|   -2.512363|   -2.652314|    0.705787|
|         797|  6.8367e-01|   -6.293034|   -2.515139|   -2.652557|    0.698091|
|         798|  6.8416e-01|   -6.284266|   -2.518659|   -2.651647|    0.707047|
|         799|  6.8465e-01|   -6.286792|   -2.521935|   -2.651863|    0.704043|
|         800|  6.8514e-01|   -6.279560|   -2.526664|   -2.651035|    0.711744|
|         801|  6.8563e-01|   -6.279068|   -2.531459|   -2.652403|    0.712807|
|         802|  6.8612e-01|   -6.297022|   -2.537330|   -2.656619|    0.693752|
|         803|  6.8661e-01|   -6.305869|   -2.544402|   -2.659932|    0.684740|
|         804|  6.8711e-01|   -6.340571|   -2.550517|   -2.668148|    0.648108|
|         805|  6.8759e-01|   -6.351763|   -2.557589|   -2.675064|    0.637374|
|         806|  6.8808e-01|   -6.353407|   -2.562929|   -2.683528|    0.637649|
|         807|  6.8856e-01|   -6.355290|   -2.569313|   -2.693545|    0.637826|
|         808|  6.8929e-01|   -6.359189|   -2.574656|   -2.705715|    0.635570|
|         809|  6.8976e-01|   -6.364762|   -2.578203|   -2.719215|    0.631074|
|         810|  6.9022e-01|   -6.359702|   -2.580874|   -2.731763|    0.637396|
|         811|  6.9069e-01|   -6.326689|   -2.582937|   -2.739966|    0.671648|
|         812|  6.9116e-01|   -6.313916|   -2.582569|   -2.749663|    0.683291|
|         813|  6.9163e-01|   -6.305630|   -2.583374|   -2.755915|    0.689635|
|         814|  6.9210e-01|   -6.304773|   -2.585066|   -2.757758|    0.688261|
|         815|  6.9257e-01|   -6.300519|   -2.584842|   -2.758372|    0.690427|
|         816|  6.9303e-01|   -6.286143|   -2.584724|   -2.754815|    0.703478|
|         817|  6.9350e-01|   -6.269725|   -2.584284|   -2.748915|    0.719657|
|         818|  6.9397e-01|   -6.281671|   -2.584702|   -2.745947|    0.705348|
|         819|  6.9444e-01|   -6.287767|   -2.585330|   -2.742153|    0.698085|
|         820|  6.9490e-01|   -6.297867|   -2.586147|   -2.738222|    0.687205|
[...]
|        2272|  6.1605e-01|   -6.332621|   -2.679881|   -2.806289|    0.647120|
|        2273|  6.1626e-01|   -6.342972|   -2.683469|   -2.805834|    0.635395|
|        2274|  6.1647e-01|   -6.361652|   -2.689695|   -2.810118|    0.613737|
|        2275|  6.1667e-01|   -6.370188|   -2.698019|   -2.812025|    0.605098|
|        2276|  6.1687e-01|   -6.383692|   -2.704468|   -2.815879|    0.589851|
|        2277|  6.1708e-01|   -6.400697|   -2.712005|   -2.820216|    0.570509|
|        2278|  6.1728e-01|   -6.404004|   -2.716051|   -2.824434|    0.567673|
|        2279|  6.1748e-01|   -6.392514|   -2.717636|   -2.825315|    0.582254|
|        2280|  6.1768e-01|   -6.379005|   -2.717103|   -2.827042|    0.598908|
|        2281|  6.1788e-01|   -6.372038|   -2.714663|   -2.830132|    0.606667|
|        2282|  6.1809e-01|   -6.375901|   -2.712634|   -2.834010|    0.602399|
|        2283|  6.1829e-01|   -6.347184|   -2.708357|   -2.833723|    0.634036|
|        2284|  6.1849e-01|   -6.333709|   -2.701215|   -2.833874|    0.648724|
|        2285|  6.1869e-01|   -6.320991|   -2.696002|   -2.833506|    0.662177|
|        2286|  6.1889e-01|   -6.312577|   -2.690513|   -2.828137|    0.671091|
|        2287|  6.1909e-01|   -6.306366|   -2.685312|   -2.825451|    0.677550|
|        2288|  6.1929e-01|   -6.317244|   -2.683086|   -2.823193|    0.664042|
|        2289|  6.1950e-01|   -6.312629|   -2.682373|   -2.821030|    0.668172|
|        2290|  6.1970e-01|   -6.312413|   -2.681636|   -2.816821|    0.667933|
|        2291|  6.1990e-01|   -6.312515|   -2.683126|   -2.814875|    0.666759|
|        2292|  6.2010e-01|   -6.314418|   -2.687458|   -2.812062|    0.664642|
|        2293|  6.2031e-01|   -6.328471|   -2.692028|   -2.813121|    0.648402|
|        2294|  6.2051e-01|   -6.333104|   -2.697147|   -2.811201|    0.643737|
|        2295|  6.2071e-01|   -6.349211|   -2.703513|   -2.815412|    0.625758|
|        2296|  6.2091e-01|   -6.363920|   -2.709044|   -2.817886|    0.609732|
|        2297|  6.2111e-01|   -6.366085|   -2.715179|   -2.818982|    0.609002|
|        2298|  6.2129e-01|   -6.377224|   -2.719751|   -2.822907|    0.597567|
|        2299|  6.2146e-01|   -6.384734|   -2.724619|   -2.825428|    0.590060|
|        2300|  6.2166e-01|   -6.401627|   -2.729805|   -2.830329|    0.571105|
|        2301|  6.2186e-01|   -6.414540|   -2.733867|   -2.835794|    0.555525|
|        2302|  6.2204e-01|   -6.403724|   -2.738430|   -2.836660|    0.568202|
|        2303|  6.2221e-01|   -6.417945|   -2.741283|   -2.842543|    0.552182|
|        2304|  6.2239e-01|   -6.434286|   -2.744175|   -2.849021|    0.532914|
|        2305|  6.2256e-01|   -6.435236|   -2.746160|   -2.850871|    0.532266|
|        2306|  6.2274e-01|   -6.427627|   -2.749196|   -2.853465|    0.542157|
|        2307|  6.2291e-01|   -6.432638|   -2.749337|   -2.856624|    0.536515|
|        2308|  6.2309e-01|   -6.439846|   -2.751488|   -2.860927|    0.527440|
|        2309|  6.2327e-01|   -6.445302|   -2.753770|   -2.866620|    0.521489|
|        2310|  6.2344e-01|   -6.442220|   -2.754693|   -2.868721|    0.526358|
|        2311|  6.2362e-01|   -6.445390|   -2.756583|   -2.872199|    0.522660|
|        2312|  6.2379e-01|   -6.422028|   -2.756582|   -2.870745|    0.550994|
|        2313|  6.2397e-01|   -6.423851|   -2.759440|   -2.874660|    0.548885|
|        2314|  6.2414e-01|   -6.454733|   -2.762811|   -2.882458|    0.512611|
|        2315|  6.2431e-01|   -6.459542|   -2.764041|   -2.885209|    0.507091|
|        2316|  6.2448e-01|   -6.441811|   -2.764715|   -2.884837|    0.529106|
|        2317|  6.2466e-01|   -6.440225|   -2.764724|   -2.887522|    0.531325|
|        2318|  6.2485e-01|   -6.455716|   -2.766705|   -2.891534|    0.511867|
|        2319|  6.2505e-01|   -6.447065|   -2.765888|   -2.891731|    0.521878|
|        2320|  6.2524e-01|   -6.436302|   -2.764263|   -2.891034|    0.534718|
|        2321|  6.2543e-01|   -6.435882|   -2.763145|   -2.893166|    0.534662|
|        2322|  6.2563e-01|   -6.440331|   -2.759289|   -2.895471|    0.528931|
|        2323|  6.2582e-01|   -6.431277|   -2.754946|   -2.895377|    0.539367|
|        2324|  6.2602e-01|   -6.412368|   -2.749238|   -2.892427|    0.561616|
|        2325|  6.2622e-01|   -6.401602|   -2.743933|   -2.890212|    0.574251|
|        2326|  6.2649e-01|   -6.391084|   -2.737935|   -2.887766|    0.586551|
|        2327|  6.2668e-01|   -6.385935|   -2.732138|   -2.886400|    0.592416|
|        2328|  6.2687e-01|   -6.369394|   -2.726411|   -2.882330|    0.611322|
|        2329|  6.2706e-01|   -6.371017|   -2.722435|   -2.880697|    0.608892|
|        2330|  6.2725e-01|   -6.360404|   -2.718053|   -2.874400|    0.621638|
|        2331|  6.2744e-01|   -6.360311|   -2.714951|   -2.871740|    0.621540|
|        2332|  6.2763e-01|   -6.347194|   -2.712648|   -2.866558|    0.636143|
|        2333|  6.2782e-01|   -6.351927|   -2.711073|   -2.864208|    0.629961|
|        2334|  6.2801e-01|   -6.358259|   -2.711106|   -2.863053|    0.622747|
|        2335|  6.2820e-01|   -6.353884|   -2.713932|   -2.859324|    0.627303|
|        2336|  6.2827e-01|   -6.365312|   -2.716821|   -2.857396|    0.614666|
|        2337|  6.2824e-01|   -6.426486|   -2.732738|   -2.853203|    0.546860|
|        2338|  6.2818e-01|   -6.485535|   -2.742758|   -2.852146|    0.478324|
|        2339|  6.2809e-01|   -6.523761|   -2.747328|   -2.851695|    0.431480|
|        2340|  6.2800e-01|   -6.555269|   -2.749281|   -2.852161|    0.390819|
|        2341|  6.2788e-01|   -6.562880|   -2.750522|   -2.851951|    0.381086|
|        2342|  6.2777e-01|   -6.570913|   -2.751145|   -2.851908|    0.370323|
|        2343|  6.2764e-01|   -6.576386|   -2.751457|   -2.852023|    0.362825|
|        2344|  6.2751e-01|   -6.579277|   -2.751590|   -2.852097|    0.358823|
|        2345|  6.2737e-01|   -6.580161|   -2.751650|   -2.852094|    0.357601|
|        2346|  6.2725e-01|   -6.580541|   -2.751676|   -2.852087|    0.357078|
|        2347|  6.2711e-01|   -6.580714|   -2.751689|   -2.852082|    0.356841|
|        2348|  6.2698e-01|   -6.580830|   -2.751697|   -2.852078|    0.356682|
|        2349|  6.2685e-01|   -6.580943|   -2.751705|   -2.852074|    0.356527|
|        2350|  6.2672e-01|   -6.581053|   -2.751713|   -2.852069|    0.356376|
|        2351|  6.2659e-01|   -6.581161|   -2.751720|   -2.852064|    0.356227|
|        2352|  6.2646e-01|   -6.581263|   -2.751728|   -2.852059|    0.356088|
|        2353|  6.2633e-01|   -6.581358|   -2.751735|   -2.852053|    0.355957|
|        2354|  6.2620e-01|   -6.581455|   -2.751742|   -2.852047|    0.355824|
|        2355|  6.2607e-01|   -6.581562|   -2.751749|   -2.852042|    0.355677|
|        2356|  6.2594e-01|   -6.581722|   -2.751759|   -2.852039|    0.355454|
|        2357|  6.2581e-01|   -6.581971|   -2.751773|   -2.852038|    0.355106|
|        2358|  6.2568e-01|   -6.582314|   -2.751792|   -2.852040|    0.354624|
|        2359|  6.2555e-01|   -6.582721|   -2.751814|   -2.852042|    0.354053|
|        2360|  6.2541e-01|   -6.583244|   -2.751840|   -2.852046|    0.353322|
|        2361|  6.2529e-01|   -6.583871|   -2.751870|   -2.852052|    0.352441|
|        2362|  6.2516e-01|   -6.584656|   -2.751902|   -2.852067|    0.351338|
|        2363|  6.2503e-01|   -6.585680|   -2.751939|   -2.852097|    0.349905|
|        2364|  6.2490e-01|   -6.586975|   -2.751981|   -2.852144|    0.348103|
|        2365|  6.2477e-01|   -6.588183|   -2.752024|   -2.852179|    0.346419|
|        2366|  6.2464e-01|   -6.589399|   -2.752075|   -2.852206|    0.344728|
|        2367|  6.2451e-01|   -6.590452|   -2.752128|   -2.852203|    0.343266|
|        2368|  6.2438e-01|   -6.591906|   -2.752201|   -2.852217|    0.341246|
|        2369|  6.2426e-01|   -6.593123|   -2.752297|   -2.852192|    0.339582|
|        2370|  6.2413e-01|   -6.594518|   -2.752406|   -2.852169|    0.337659|
|        2371|  6.2402e-01|   -6.595447|   -2.752515|   -2.852154|    0.336393|
|        2372|  6.2391e-01|   -6.595109|   -2.752640|   -2.852102|    0.336983|
|        2373|  6.2379e-01|   -6.595634|   -2.752775|   -2.852020|    0.336464|
|        2374|  6.2369e-01|   -6.596136|   -2.752892|   -2.851966|    0.335779|
|        2375|  6.2357e-01|   -6.594846|   -2.753142|   -2.851675|    0.337691|
|        2376|  6.2346e-01|   -6.589651|   -2.753461|   -2.851076|    0.345170|
|        2377|  6.2335e-01|   -6.583588|   -2.753729|   -2.850333|    0.353912|
|        2378|  6.2324e-01|   -6.585406|   -2.754084|   -2.849850|    0.351761|
|        2379|  6.2311e-01|   -6.588690|   -2.754159|   -2.849873|    0.347084|
|        2380|  6.2298e-01|   -6.591090|   -2.754254|   -2.849940|    0.343695|
|        2381|  6.2286e-01|   -6.591624|   -2.754310|   -2.849939|    0.342959|
|        2382|  6.2273e-01|   -6.592041|   -2.754363|   -2.849948|    0.342371|
|        2383|  6.2260e-01|   -6.593263|   -2.754425|   -2.849973|    0.340664|
|        2384|  6.2247e-01|   -6.593592|   -2.754471|   -2.849941|    0.340221|
|        2385|  6.2235e-01|   -6.593086|   -2.754531|   -2.849816|    0.340977|
|        2386|  6.2224e-01|   -6.593775|   -2.754640|   -2.849748|    0.340007|
|        2387|  6.2212e-01|   -6.593741|   -2.754775|   -2.849622|    0.340048|
|        2388|  6.2201e-01|   -6.593373|   -2.754952|   -2.849464|    0.340616|
|        2389|  6.2190e-01|   -6.593866|   -2.755186|   -2.849295|    0.339959|
|        2390|  6.2179e-01|   -6.587833|   -2.755376|   -2.848511|    0.348612|
|        2391|  6.2168e-01|   -6.582546|   -2.755530|   -2.847512|    0.356142|
|        2392|  6.2157e-01|   -6.584292|   -2.755825|   -2.847237|    0.353685|
|        2393|  6.2148e-01|   -6.585022|   -2.756065|   -2.846868|    0.352556|
|        2394|  6.2139e-01|   -6.585077|   -2.756333|   -2.846435|    0.352317|
|        2395|  6.2129e-01|   -6.578258|   -2.756679|   -2.845512|    0.361853|
|        2396|  6.2120e-01|   -6.566116|   -2.756836|   -2.844254|    0.378338|
|        2397|  6.2113e-01|   -6.562102|   -2.757467|   -2.843465|    0.383303|
|        2398|  6.2103e-01|   -6.562899|   -2.757740|   -2.842728|    0.381622|
|        2399|  6.2092e-01|   -6.561494|   -2.758471|   -2.841681|    0.383190|
|        2400|  6.2081e-01|   -6.563915|   -2.758787|   -2.841276|    0.379712|
|        2401|  6.2069e-01|   -6.568481|   -2.759061|   -2.841340|    0.373375|
|        2402|  6.2057e-01|   -6.570847|   -2.759176|   -2.841478|    0.370088|
|        2403|  6.2045e-01|   -6.572068|   -2.759227|   -2.841562|    0.368382|
|        2404|  6.2032e-01|   -6.572817|   -2.759253|   -2.841620|    0.367333|
|        2405|  6.2020e-01|   -6.573197|   -2.759265|   -2.841651|    0.366800|
|        2406|  6.2007e-01|   -6.573452|   -2.759274|   -2.841671|    0.366444|
|        2407|  6.1995e-01|   -6.573696|   -2.759283|   -2.841691|    0.366100|
|        2408|  6.1982e-01|   -6.573981|   -2.759294|   -2.841714|    0.365701|
|        2409|  6.1970e-01|   -6.574298|   -2.759306|   -2.841739|    0.365255|
|        2410|  6.1957e-01|   -6.574649|   -2.759321|   -2.841767|    0.364760|
|        2411|  6.1945e-01|   -6.575058|   -2.759337|   -2.841799|    0.364182|
|        2412|  6.1932e-01|   -6.575532|   -2.759355|   -2.841837|    0.363513|
|        2413|  6.1920e-01|   -6.576059|   -2.759376|   -2.841881|    0.362770|
|        2414|  6.1907e-01|   -6.576628|   -2.759398|   -2.841930|    0.361966|
|        2415|  6.1895e-01|   -6.577208|   -2.759420|   -2.841986|    0.361143|
|        2416|  6.1882e-01|   -6.577726|   -2.759438|   -2.842044|    0.360403|
|        2417|  6.1870e-01|   -6.578440|   -2.759456|   -2.842129|    0.359391|
|        2418|  6.1858e-01|   -6.579434|   -2.759503|   -2.842239|    0.357988|
|        2419|  6.1845e-01|   -6.580001|   -2.759564|   -2.842306|    0.357180|
|        2420|  6.1833e-01|   -6.580392|   -2.759635|   -2.842345|    0.356615|
|        2421|  6.1821e-01|   -6.580213|   -2.759700|   -2.842333|    0.356846|
|        2422|  6.1809e-01|   -6.580463|   -2.759788|   -2.842332|    0.356467|
|        2423|  6.1798e-01|   -6.581373|   -2.759893|   -2.842344|    0.355144|
|        2424|  6.1787e-01|   -6.582413|   -2.759997|   -2.842353|    0.353606|
|        2425|  6.1777e-01|   -6.582956|   -2.760125|   -2.842304|    0.352754|
|        2426|  6.1766e-01|   -6.583061|   -2.760277|   -2.842182|    0.352519|
|        2427|  6.1755e-01|   -6.581178|   -2.760473|   -2.841873|    0.355060|
|        2428|  6.1745e-01|   -6.577774|   -2.760650|   -2.841414|    0.359775|
|        2429|  6.1734e-01|   -6.572280|   -2.760933|   -2.840511|    0.367354|
|        2430|  6.1723e-01|   -6.571001|   -2.761196|   -2.839896|    0.368952|
|        2431|  6.1714e-01|   -6.570652|   -2.761534|   -2.839513|    0.369187|
|        2432|  6.1707e-01|   -6.572421|   -2.761736|   -2.839465|    0.366539|
|        2433|  6.1698e-01|   -6.569762|   -2.762212|   -2.838887|    0.369931|
|        2434|  6.1689e-01|   -6.569169|   -2.762526|   -2.838428|    0.370577|
|        2435|  6.1682e-01|   -6.559135|   -2.762584|   -2.837509|    0.383696|
|        2436|  6.1675e-01|   -6.549887|   -2.762792|   -2.836194|    0.395681|
|        2437|  6.1667e-01|   -6.543481|   -2.763159|   -2.835139|    0.403792|
|        2438|  6.1662e-01|   -6.541157|   -2.762884|   -2.835292|    0.406870|
|        2439|  6.1656e-01|   -6.539410|   -2.763112|   -2.834624|    0.408800|
|        2440|  6.1652e-01|   -6.533758|   -2.762075|   -2.834604|    0.415397|
|        2441|  6.1650e-01|   -6.520686|   -2.760980|   -2.834922|    0.431655|
|        2442|  6.1648e-01|   -6.520068|   -2.758743|   -2.836474|    0.431190|
|        2443|  6.1647e-01|   -6.517865|   -2.756768|   -2.837468|    0.432497|
|        2444|  6.1648e-01|   -6.502607|   -2.754337|   -2.838022|    0.450648|
|        2445|  6.1651e-01|   -6.492822|   -2.753153|   -2.839014|    0.462889|
|        2446|  6.1658e-01|   -6.485749|   -2.750983|   -2.840281|    0.472147|
|        2447|  6.1667e-01|   -6.485268|   -2.748352|   -2.842056|    0.472923|
|        2448|  6.1679e-01|   -6.471086|   -2.745385|   -2.842100|    0.491450|
|        2449|  6.1694e-01|   -6.458594|   -2.744635|   -2.842698|    0.508322|
|        2450|  6.1712e-01|   -6.439157|   -2.742464|   -2.843104|    0.533374|
|        2451|  6.1732e-01|   -6.428090|   -2.738899|   -2.845239|    0.545400|
|        2452|  6.1755e-01|   -6.408953|   -2.738560|   -2.846647|    0.567511|
|        2453|  6.1775e-01|   -6.408280|   -2.733752|   -2.848320|    0.566874|
|        2454|  6.1795e-01|   -6.391609|   -2.729374|   -2.849060|    0.585337|
|        2455|  6.1814e-01|   -6.375887|   -2.723877|   -2.848445|    0.603217|
|        2456|  6.1832e-01|   -6.363415|   -2.715837|   -2.848056|    0.616814|
|        2457|  6.1853e-01|   -6.347649|   -2.709862|   -2.847294|    0.633863|
|        2458|  6.1871e-01|   -6.344119|   -2.703106|   -2.846089|    0.638173|
|        2459|  6.1889e-01|   -6.325256|   -2.695950|   -2.844403|    0.658525|
|        2460|  6.1908e-01|   -6.321579|   -2.694279|   -2.835907|    0.663217|
|        2461|  6.1927e-01|   -6.315094|   -2.690292|   -2.835626|    0.669925|
|        2462|  6.1945e-01|   -6.321208|   -2.688704|   -2.832847|    0.662196|
|        2463|  6.1966e-01|   -6.319492|   -2.689230|   -2.829672|    0.663689|
|        2464|  6.1986e-01|   -6.331862|   -2.691453|   -2.830779|    0.648997|
|        2465|  6.2005e-01|   -6.335754|   -2.694392|   -2.829757|    0.644491|
|        2466|  6.2025e-01|   -6.348267|   -2.699380|   -2.828751|    0.630098|
|        2467|  6.2044e-01|   -6.350391|   -2.703489|   -2.828911|    0.628439|
|        2468|  6.2062e-01|   -6.363623|   -2.708922|   -2.830832|    0.614136|
|        2469|  6.2079e-01|   -6.370340|   -2.714615|   -2.832617|    0.607182|
|        2470|  6.2096e-01|   -6.378603|   -2.719578|   -2.833728|    0.598539|
|        2471|  6.2113e-01|   -6.384341|   -2.722782|   -2.837248|    0.592214|
|        2472|  6.2130e-01|   -6.398745|   -2.728375|   -2.839238|    0.576074|
|        2473|  6.2148e-01|   -6.395776|   -2.731157|   -2.841669|    0.579938|
|        2474|  6.2165e-01|   -6.401014|   -2.733049|   -2.845551|    0.573954|
|        2475|  6.2182e-01|   -6.400241|   -2.736345|   -2.846850|    0.575823|
|        2476|  6.2200e-01|   -6.413464|   -2.738871|   -2.851700|    0.560136|
|        2477|  6.2218e-01|   -6.438421|   -2.742247|   -2.857887|    0.530147|
|        2478|  6.2236e-01|   -6.439027|   -2.744013|   -2.860172|    0.530258|
|        2479|  6.2253e-01|   -6.468303|   -2.745676|   -2.865957|    0.494098|
|        2480|  6.2271e-01|   -6.449189|   -2.746120|   -2.865846|    0.518436|
|        2481|  6.2288e-01|   -6.439460|   -2.747666|   -2.865545|    0.530081|
|        2482|  6.2307e-01|   -6.439862|   -2.747525|   -2.867275|    0.530185|
|        2483|  6.2324e-01|   -6.445037|   -2.750137|   -2.870858|    0.524314|
|        2484|  6.2343e-01|   -6.453678|   -2.750775|   -2.874191|    0.513929|
|        2485|  6.2361e-01|   -6.444991|   -2.754757|   -2.875165|    0.525430|
|        2486|  6.2378e-01|   -6.451240|   -2.756386|   -2.878325|    0.518132|
|        2487|  6.2396e-01|   -6.445772|   -2.757412|   -2.878790|    0.524998|
|        2488|  6.2412e-01|   -6.440038|   -2.757525|   -2.880233|    0.531969|
|        2489|  6.2430e-01|   -6.433507|   -2.759474|   -2.880590|    0.540380|
|        2490|  6.2448e-01|   -6.439214|   -2.761588|   -2.883995|    0.533650|
|        2491|  6.2464e-01|   -6.447763|   -2.762434|   -2.887082|    0.522742|
|        2492|  6.2482e-01|   -6.442677|   -2.765116|   -2.888436|    0.528708|
|        2493|  6.2498e-01|   -6.446314|   -2.765177|   -2.889616|    0.523926|
|        2494|  6.2516e-01|   -6.444683|   -2.764067|   -2.890723|    0.525160|
|        2495|  6.2535e-01|   -6.442747|   -2.763823|   -2.891739|    0.526980|
|        2496|  6.2554e-01|   -6.431681|   -2.761414|   -2.891103|    0.540202|
|        2497|  6.2574e-01|   -6.431495|   -2.758766|   -2.893067|    0.540288|
|        2498|  6.2592e-01|   -6.410591|   -2.755588|   -2.889240|    0.564347|
|        2499|  6.2611e-01|   -6.414742|   -2.751678|   -2.891674|    0.559245|

----------------------------- Solver Exit -------------------------------

Maximum number of iterations reached (ITER = 2500) before convergence.
+-----------------------------------------------------------------------+
|      Convergence Field     |     Value    |   Criterion  |  Converged |
+-----------------------------------------------------------------------+
|                    rms[Rho]|      -6.41474|          < -8|          No|
+-----------------------------------------------------------------------+
-------------------------------------------------------------------------
+-----------------------------------------------------------------------+
|        File Writing Summary       |              Filename             |
+-----------------------------------------------------------------------+
|SU2 binary restart                 |restart_flow.dat                   |
|Paraview                           |flow.vtu                           |
|CSV file                           |surface_flow.csv                   |
+-----------------------------------------------------------------------+

--------------------------- Finalizing Solver ---------------------------
Deleted CNumerics container.
Deleted CIntegration container.
Deleted CSolver container.
Deleted CIteration container.
Deleted CInterface container.
Deleted CGeometry container.
Deleted CFreeFormDefBox class.
Deleted CSurfaceMovement class.
Deleted CVolumetricMovement class.
Deleted CConfig container.
Deleted nInst container.
Deleted COutput class.
-------------------------------------------------------------------------

------------------------- Exit Success (SU2_CFD) ------------------------


Total elapsed: 0:26:07
