
-------------------------------------------------------------------------
|    ___ _   _ ___                                                      |
|   / __| | | |_  )   Release 8.3.0 "Harrier"                           |
|   \__ \ |_| |/ /                                                      |
|   |___/\___//___|   Suite (Computational Fluid Dynamics Code)         |
|                                                                       |
-------------------------------------------------------------------------
| SU2 Project Website: https://su2code.github.io                        |
|                                                                       |
| The SU2 Project is maintained by the SU2 Foundation                   |
| (http://su2foundation.org)                                            |
-------------------------------------------------------------------------
| Copyright 2012-2025, SU2 Contributors                                 |
|                                                                       |
| SU2 is free software; you can redistribute it and/or                  |
| modify it under the terms of the GNU Lesser General Public            |
| License as published by the Free Software Foundation; either          |
| version 2.1 of the License, or (at your option) any later version.    |
|                                                                       |
| SU2 is distributed in the hope that it will be useful,                |
| but WITHOUT ANY WARRANTY; without even the implied warranty of        |
| MERCHANTABILITY or FITNESS FOR A PARTICULAR PURPOSE. See the GNU      |
| Lesser General Public License for more details.                       |
|                                                                       |
| You should have received a copy of the GNU Lesser General Public      |
| License along with SU2. If not, see <http://www.gnu.org/licenses/>.   |
-------------------------------------------------------------------------

Parsing config file for zone 0

----------------- Physical Case Definition ( Zone 0 ) -------------------
Compressible Laminar Navier-Stokes' equations.
Mach number: 0.3.
Angle of attack (AoA): 0 deg, and angle of sideslip (AoS): 0 deg.
Reynolds number: 89810. Reference length 0.166667.
No restart solution, use the values at infinity (freestream).
Dimensional simulation.
The reference area is 0.0833333 ft^2.
The semi-span will be computed using the max y(3D) value.
The reference length is 0.166667 ft.
Input mesh file name: swirler_n6_c2_AoA10_NACA8412.su2

--------------- Space Numerical Integration ( Zone 0 ) ------------------
Roe (with entropy fix = 0.05) solver for the flow inviscid terms.
Standard Roe without low-dissipation function.
Second order integration in space, with slope limiter.
Venkatakrishnan slope-limiting method, with constant: 0.02.
The reference element size is: 3.28084. 
Average of gradients with correction (viscous flow terms).
Gradient for upwind reconstruction: inverse-distance weighted Least-Squares.
Gradient for viscous and source terms: inverse-distance weighted Least-Squares.

--------------- Time Numerical Integration  ( Zone 0 ) ------------------
Local time stepping (steady state simulation).
Euler implicit method for the flow equations.
FGMRES is used for solving the linear system.
Using a ILU(0) preconditioning.
Convergence criteria of the linear solver: 1e-06.
Max number of linear iterations: 120.
CFL adaptation. Factor down: 0.5, factor up: 1.2,
                lower limit: 0.01, upper limit: 30,
                acceptable linear residual: 0.001'
                starting iteration: 0.
Courant-Friedrichs-Lewy number:      0.5

------------------ Convergence Criteria  ( Zone 0 ) ---------------------
Maximum number of solver subiterations: 2500.
Begin convergence monitoring at iteration 20.
Residual minimum value: 1e-8.
Cauchy series min. value: 1e-06.
Number of Cauchy elements: 100.
Begin windowed time average at iteration 0.

-------------------- Output Information ( Zone 0 ) ----------------------
File writing frequency: 
+------------------------------------+
|                     File| Frequency|
+------------------------------------+
|                  RESTART|       250|
|                 PARAVIEW|       250|
|              SURFACE_CSV|       250|
+------------------------------------+
Writing the convergence history file every 1 inner iterations.
Writing the screen convergence history every 1 inner iterations.
The tabular file format is CSV (.csv).
Convergence history file name: history.
Forces breakdown file name: forces_breakdown.dat.
Surface file name: surface_flow.
Volume file name: flow.
Restart file name: restart_flow.

------------- Config File Boundary Information ( Zone 0 ) ---------------
+-----------------------------------------------------------------------+
|                        Marker Type|                        Marker Name|
+-----------------------------------------------------------------------+
|                  Periodic boundary|                          Symmetry2|
|                                   |                          Symmetry1|
+-----------------------------------------------------------------------+
|                     Inlet boundary|                              Inlet|
+-----------------------------------------------------------------------+
|                    Outlet boundary|                             Outlet|
+-----------------------------------------------------------------------+
|                     Heat flux wall|                           Airfoils|
+-----------------------------------------------------------------------+

-------------------- Output Preprocessing ( Zone 0 ) --------------------

WARNING: SURFACE_PRESSURE_DROP can only be computed for at least 2 surfaces (outlet, inlet, ...)

Screen output fields: INNER_ITER, WALL_TIME, RMS_DENSITY, RMS_MOMENTUM-X, RMS_MOMENTUM-Y, RMS_ENERGY
History output group(s): ITER, RMS_RES
Convergence field(s): RMS_DENSITY
Warning: No (valid) fields chosen for time convergence monitoring. Time convergence monitoring inactive.
Volume output fields: COORDINATES, SOLUTION, PRIMITIVE

------------------- Geometry Preprocessing ( Zone 0 ) -------------------
Two dimensional problem.
118518 grid points.
235292 volume elements.
5 surface markers.
1188 boundary elements in index 0 (Marker = Airfoils).
63 boundary elements in index 1 (Marker = Inlet).
220 boundary elements in index 2 (Marker = Symmetry1).
220 boundary elements in index 3 (Marker = Symmetry2).
63 boundary elements in index 4 (Marker = Outlet).
235292 triangles.
Setting point connectivity.
Renumbering points (Reverse Cuthill McKee Ordering).
Recomputing point connectivity.
Setting element connectivity.
Checking the numerical grid orientation.
All volume elements are correctly oriented.
There has been a re-orientation of 220 LINE surface elements.
Identifying edges and vertices.
Setting the control volume structure.
Area of the computational grid: 0.95648.
Searching for the closest normal neighbors to the surfaces.
Storing a mapping from global to local point index.
Compute the surface curvature.
Max K: 90341.5. Mean K: 342.579. Standard deviation K: 5268.16.
Checking for periodicity.
Computing mesh quality statistics for the dual control volumes.
+--------------------------------------------------------------+
|           Mesh Quality Metric|        Minimum|        Maximum|
+--------------------------------------------------------------+
|    Orthogonality Angle (deg.)|        49.3418|        89.7644|
|     CV Face Area Aspect Ratio|        1.00003|        12.1721|
|           CV Sub-Volume Ratio|              1|        69.3481|
+--------------------------------------------------------------+
Finding max control volume width.
Wetted area = 0 ft.
Area projection in the x-plane = 0 ft, y-plane = 0 ft.
Max. coordinate in the x-direction = -1e+10 ft, y-direction = -1e+10 ft.
Min. coordinate in the x-direction = 1e+10 ft, y-direction = 1e+10 ft.
Matching the periodic boundary points for marker pair 1.

   Bad match for point 1188.	Nearest donor distance: 5.7595865316e+00.
   Bad match for point 1316.	Nearest donor distance: 5.7595865316e+00.
   Bad match for point 1317.	Nearest donor distance: 5.7595865316e+00.
   Bad match for point 1318.	Nearest donor distance: 5.7595865316e+00.
   Bad match for point 1319.	Nearest donor distance: 5.7595865316e+00.
   Bad match for point 1320.	Nearest donor distance: 5.7595865316e+00.
   Bad match for point 1321.	Nearest donor distance: 5.7595865316e+00.
   Bad match for point 1322.	Nearest donor distance: 5.7595865316e+00.
   Bad match for point 1323.	Nearest donor distance: 5.7595865316e+00.
   Bad match for point 1324.	Nearest donor distance: 5.7595865316e+00.
   Bad match for point 1325.	Nearest donor distance: 5.7595865316e+00.
   Bad match for point 1326.	Nearest donor distance: 5.7595865316e+00.
   Bad match for point 1327.	Nearest donor distance: 5.7595865316e+00.
   Bad match for point 1328.	Nearest donor distance: 5.7595865316e+00.
   Bad match for point 1329.	Nearest donor distance: 5.7595865316e+00.
   Bad match for point 1330.	Nearest donor distance: 5.7595865316e+00.
   Bad match for point 1331.	Nearest donor distance: 5.7595865316e+00.
   Bad match for point 1332.	Nearest donor distance: 5.7595865316e+00.
   Bad match for point 1333.	Nearest donor distance: 5.7595865316e+00.
   Bad match for point 1334.	Nearest donor distance: 5.7595865316e+00.
   Bad match for point 1335.	Nearest donor distance: 5.7595865316e+00.
   Bad match for point 1336.	Nearest donor distance: 5.7595865316e+00.
   Bad match for point 1337.	Nearest donor distance: 5.7595865316e+00.
   Bad match for point 1338.	Nearest donor distance: 5.7595865316e+00.
   Bad match for point 1339.	Nearest donor distance: 5.7595865316e+00.
   Bad match for point 1340.	Nearest donor distance: 5.7595865316e+00.
   Bad match for point 1341.	Nearest donor distance: 5.7595865316e+00.
   Bad match for point 1342.	Nearest donor distance: 5.7595865316e+00.
   Bad match for point 1343.	Nearest donor distance: 5.7595865316e+00.
   Bad match for point 1344.	Nearest donor distance: 5.7595865316e+00.
   Bad match for point 1345.	Nearest donor distance: 5.7595865316e+00.
   Bad match for point 1346.	Nearest donor distance: 5.7595865316e+00.
   Bad match for point 1347.	Nearest donor distance: 5.7595865316e+00.
   Bad match for point 1348.	Nearest donor distance: 5.7595865316e+00.
   Bad match for point 1349.	Nearest donor distance: 5.7595865316e+00.
   Bad match for point 1350.	Nearest donor distance: 5.7595865316e+00.
   Bad match for point 1351.	Nearest donor distance: 5.7595865316e+00.
   Bad match for point 1352.	Nearest donor distance: 5.7595865316e+00.
   Bad match for point 1353.	Nearest donor distance: 5.7595865316e+00.
   Bad match for point 1354.	Nearest donor distance: 5.7595865316e+00.
   Bad match for point 1355.	Nearest donor distance: 5.7595865316e+00.
   Bad match for point 1356.	Nearest donor distance: 5.7595865316e+00.
   Bad match for point 1357.	Nearest donor distance: 5.7595865316e+00.
   Bad match for point 1358.	Nearest donor distance: 5.7595865316e+00.
   Bad match for point 1359.	Nearest donor distance: 5.7595865316e+00.
   Bad match for point 1360.	Nearest donor distance: 5.7595865316e+00.
   Bad match for point 1361.	Nearest donor distance: 5.7595865316e+00.
   Bad match for point 1362.	Nearest donor distance: 5.7595865316e+00.
   Bad match for point 1363.	Nearest donor distance: 5.7595865316e+00.
   Bad match for point 1364.	Nearest donor distance: 5.7595865316e+00.
   Bad match for point 1365.	Nearest donor distance: 5.7595865316e+00.
   Bad match for point 1366.	Nearest donor distance: 5.7595865316e+00.
   Bad match for point 1367.	Nearest donor distance: 5.7595865316e+00.
   Bad match for point 1368.	Nearest donor distance: 5.7595865316e+00.
   Bad match for point 1369.	Nearest donor distance: 5.7595865316e+00.
   Bad match for point 1370.	Nearest donor distance: 5.7595865316e+00.
   Bad match for point 1371.	Nearest donor distance: 5.7595865316e+00.
   Bad match for point 1372.	Nearest donor distance: 5.7595865316e+00.
   Bad match for point 1373.	Nearest donor distance: 5.7595865316e+00.
   Bad match for point 1374.	Nearest donor distance: 5.7595865316e+00.
   Bad match for point 1375.	Nearest donor distance: 5.7595865316e+00.
   Bad match for point 1376.	Nearest donor distance: 5.7595865316e+00.
   Bad match for point 1377.	Nearest donor distance: 5.7595865316e+00.
   Bad match for point 1378.	Nearest donor distance: 5.7595865316e+00.
   Bad match for point 1379.	Nearest donor distance: 5.7595865316e+00.
   Bad match for point 1380.	Nearest donor distance: 5.7595865316e+00.
   Bad match for point 1381.	Nearest donor distance: 5.7595865316e+00.
   Bad match for point 1382.	Nearest donor distance: 5.7595865316e+00.
   Bad match for point 1383.	Nearest donor distance: 5.7595865316e+00.
   Bad match for point 1384.	Nearest donor distance: 5.7595865316e+00.
   Bad match for point 1385.	Nearest donor distance: 5.7595865316e+00.
   Bad match for point 1386.	Nearest donor distance: 5.7595865316e+00.
   Bad match for point 1387.	Nearest donor distance: 5.7595865316e+00.
   Bad match for point 1388.	Nearest donor distance: 5.7595865316e+00.
   Bad match for point 1389.	Nearest donor distance: 5.7595865316e+00.
   Bad match for point 1390.	Nearest donor distance: 5.7595865316e+00.
   Bad match for point 1391.	Nearest donor distance: 5.7595865316e+00.
   Bad match for point 1392.	Nearest donor distance: 5.7595865316e+00.
   Bad match for point 1393.	Nearest donor distance: 5.7595865316e+00.
   Bad match for point 1394.	Nearest donor distance: 5.7595865316e+00.
   Bad match for point 1395.	Nearest donor distance: 5.7595865316e+00.
   Bad match for point 1396.	Nearest donor distance: 5.7595865316e+00.
   Bad match for point 1397.	Nearest donor distance: 5.7595865316e+00.
   Bad match for point 1398.	Nearest donor distance: 5.7595865316e+00.
   Bad match for point 1399.	Nearest donor distance: 5.7595865316e+00.
   Bad match for point 1400.	Nearest donor distance: 5.7595865316e+00.
   Bad match for point 1401.	Nearest donor distance: 5.7595865316e+00.
   Bad match for point 1402.	Nearest donor distance: 5.7595865316e+00.
   Bad match for point 1403.	Nearest donor distance: 5.7595865316e+00.
   Bad match for point 1404.	Nearest donor distance: 5.7595865316e+00.
   Bad match for point 1405.	Nearest donor distance: 5.7595865316e+00.
   Bad match for point 1406.	Nearest donor distance: 5.7595865316e+00.
   Bad match for point 1407.	Nearest donor distance: 5.7595865316e+00.
   Bad match for point 1408.	Nearest donor distance: 5.7595865316e+00.
   Bad match for point 1409.	Nearest donor distance: 5.7595865316e+00.
   Bad match for point 1410.	Nearest donor distance: 5.7595865316e+00.
   Bad match for point 1411.	Nearest donor distance: 5.7595865316e+00.
   Bad match for point 1412.	Nearest donor distance: 5.7595865316e+00.
   Bad match for point 1413.	Nearest donor distance: 5.7595865316e+00.
   Bad match for point 1414.	Nearest donor distance: 5.7595865316e+00.
   Bad match for point 1415.	Nearest donor distance: 5.7595865316e+00.
   Bad match for point 1416.	Nearest donor distance: 5.7595865316e+00.
   Bad match for point 1417.	Nearest donor distance: 5.7595865316e+00.
   Bad match for point 1418.	Nearest donor distance: 5.7595865316e+00.
   Bad match for point 1419.	Nearest donor distance: 5.7595865316e+00.
   Bad match for point 1420.	Nearest donor distance: 5.7595865316e+00.
   Bad match for point 1421.	Nearest donor distance: 5.7595865316e+00.
   Bad match for point 1422.	Nearest donor distance: 5.7595865316e+00.
   Bad match for point 1423.	Nearest donor distance: 5.7595865316e+00.
   Bad match for point 1424.	Nearest donor distance: 5.7595865316e+00.
   Bad match for point 1425.	Nearest donor distance: 5.7595865316e+00.
   Bad match for point 1426.	Nearest donor distance: 5.7595865316e+00.
   Bad match for point 1427.	Nearest donor distance: 5.7595865316e+00.
   Bad match for point 1428.	Nearest donor distance: 5.7595865316e+00.
   Bad match for point 1429.	Nearest donor distance: 5.7595865316e+00.
   Bad match for point 1430.	Nearest donor distance: 5.7595865316e+00.
   Bad match for point 1431.	Nearest donor distance: 5.7595865316e+00.
   Bad match for point 1432.	Nearest donor distance: 5.7595865316e+00.
   Bad match for point 1433.	Nearest donor distance: 5.7595865316e+00.
   Bad match for point 1434.	Nearest donor distance: 5.7595865316e+00.
   Bad match for point 1435.	Nearest donor distance: 5.7595865316e+00.
   Bad match for point 1436.	Nearest donor distance: 5.7595865316e+00.
   Bad match for point 1437.	Nearest donor distance: 5.7595865316e+00.
   Bad match for point 1438.	Nearest donor distance: 5.7595865316e+00.
   Bad match for point 1439.	Nearest donor distance: 5.7595865316e+00.
   Bad match for point 1440.	Nearest donor distance: 5.7595865316e+00.
   Bad match for point 1441.	Nearest donor distance: 5.7595865316e+00.
   Bad match for point 1442.	Nearest donor distance: 5.7595865316e+00.
   Bad match for point 1443.	Nearest donor distance: 5.7595865316e+00.
   Bad match for point 1444.	Nearest donor distance: 5.7595865316e+00.
   Bad match for point 1445.	Nearest donor distance: 5.7595865316e+00.
   Bad match for point 1446.	Nearest donor distance: 5.7595865316e+00.
   Bad match for point 1447.	Nearest donor distance: 5.7595865316e+00.
   Bad match for point 1448.	Nearest donor distance: 5.7595865316e+00.
   Bad match for point 1449.	Nearest donor distance: 5.7595865316e+00.
   Bad match for point 1450.	Nearest donor distance: 5.7595865316e+00.
   Bad match for point 1451.	Nearest donor distance: 5.7595865316e+00.
   Bad match for point 1452.	Nearest donor distance: 5.7595865316e+00.
   Bad match for point 1453.	Nearest donor distance: 5.7595865316e+00.
   Bad match for point 1454.	Nearest donor distance: 5.7595865316e+00.
   Bad match for point 1455.	Nearest donor distance: 5.7595865316e+00.
   Bad match for point 1456.	Nearest donor distance: 5.7595865316e+00.
   Bad match for point 1457.	Nearest donor distance: 5.7595865316e+00.
   Bad match for point 1458.	Nearest donor distance: 5.7595865316e+00.
   Bad match for point 1459.	Nearest donor distance: 5.7595865316e+00.
   Bad match for point 1460.	Nearest donor distance: 5.7595865316e+00.
   Bad match for point 1461.	Nearest donor distance: 5.7595865316e+00.
   Bad match for point 1462.	Nearest donor distance: 5.7595865316e+00.
   Bad match for point 1463.	Nearest donor distance: 5.7595865316e+00.
   Bad match for point 1464.	Nearest donor distance: 5.7595865316e+00.
   Bad match for point 1465.	Nearest donor distance: 5.7595865316e+00.
   Bad match for point 1466.	Nearest donor distance: 5.7595865316e+00.
   Bad match for point 1467.	Nearest donor distance: 5.7595865316e+00.
   Bad match for point 1468.	Nearest donor distance: 5.7595865316e+00.
   Bad match for point 1469.	Nearest donor distance: 5.7595865316e+00.
   Bad match for point 1470.	Nearest donor distance: 5.7595865316e+00.
   Bad match for point 1471.	Nearest donor distance: 5.7595865316e+00.
   Bad match for point 1472.	Nearest donor distance: 5.7595865316e+00.
   Bad match for point 1473.	Nearest donor distance: 5.7595865316e+00.
   Bad match for point 1474.	Nearest donor distance: 5.7595865316e+00.
   Bad match for point 1475.	Nearest donor distance: 5.7595865316e+00.
   Bad match for point 1476.	Nearest donor distance: 5.7595865316e+00.
   Bad match for point 1477.	Nearest donor distance: 5.7595865316e+00.
   Bad match for point 1478.	Nearest donor distance: 5.7595865316e+00.
   Bad match for point 1479.	Nearest donor distance: 5.7595865316e+00.
   Bad match for point 1480.	Nearest donor distance: 5.7595865316e+00.
   Bad match for point 1481.	Nearest donor distance: 5.7595865316e+00.
   Bad match for point 1482.	Nearest donor distance: 5.7595865316e+00.
   Bad match for point 1483.	Nearest donor distance: 5.7595865316e+00.
   Bad match for point 1484.	Nearest donor distance: 5.7595865316e+00.
   Bad match for point 1485.	Nearest donor distance: 5.7595865316e+00.
   Bad match for point 1486.	Nearest donor distance: 5.7595865316e+00.
   Bad match for point 1487.	Nearest donor distance: 5.7595865316e+00.
   Bad match for point 1488.	Nearest donor distance: 5.7595865316e+00.
   Bad match for point 1489.	Nearest donor distance: 5.7595865316e+00.
   Bad match for point 1490.	Nearest donor distance: 5.7595865316e+00.
   Bad match for point 1491.	Nearest donor distance: 5.7595865316e+00.
   Bad match for point 1492.	Nearest donor distance: 5.7595865316e+00.
   Bad match for point 1493.	Nearest donor distance: 5.7595865316e+00.
   Bad match for point 1494.	Nearest donor distance: 5.7595865316e+00.
   Bad match for point 1495.	Nearest donor distance: 5.7595865316e+00.
   Bad match for point 1496.	Nearest donor distance: 5.7595865316e+00.
   Bad match for point 1497.	Nearest donor distance: 5.7595865316e+00.
   Bad match for point 1498.	Nearest donor distance: 5.7595865316e+00.
   Bad match for point 1499.	Nearest donor distance: 5.7595865316e+00.
   Bad match for point 1500.	Nearest donor distance: 5.7595865316e+00.
   Bad match for point 1501.	Nearest donor distance: 5.7595865316e+00.
   Bad match for point 1502.	Nearest donor distance: 5.7595865316e+00.
   Bad match for point 1503.	Nearest donor distance: 5.7595865316e+00.
   Bad match for point 1504.	Nearest donor distance: 5.7595865316e+00.
   Bad match for point 1505.	Nearest donor distance: 5.7595865316e+00.
   Bad match for point 1506.	Nearest donor distance: 5.7595865316e+00.
   Bad match for point 1507.	Nearest donor distance: 5.7595865316e+00.
   Bad match for point 1508.	Nearest donor distance: 5.7595865316e+00.
   Bad match for point 1509.	Nearest donor distance: 5.7595865316e+00.
   Bad match for point 1510.	Nearest donor distance: 5.7595865316e+00.
   Bad match for point 1511.	Nearest donor distance: 5.7595865316e+00.
   Bad match for point 1512.	Nearest donor distance: 5.7595865316e+00.
   Bad match for point 1513.	Nearest donor distance: 5.7595865316e+00.
   Bad match for point 1514.	Nearest donor distance: 5.7595865316e+00.
   Bad match for point 1515.	Nearest donor distance: 5.7595865316e+00.
   Bad match for point 1516.	Nearest donor distance: 5.7595865316e+00.
   Bad match for point 1517.	Nearest donor distance: 5.7595865316e+00.
   Bad match for point 1518.	Nearest donor distance: 5.7595865316e+00.
   Bad match for point 1519.	Nearest donor distance: 5.7595865316e+00.
   Bad match for point 1520.	Nearest donor distance: 5.7595865316e+00.
   Bad match for point 1521.	Nearest donor distance: 5.7595865316e+00.
   Bad match for point 1522.	Nearest donor distance: 5.7595865316e+00.
   Bad match for point 1523.	Nearest donor distance: 5.7595865316e+00.
   Bad match for point 1524.	Nearest donor distance: 5.7595865316e+00.
   Bad match for point 1525.	Nearest donor distance: 5.7595865316e+00.
   Bad match for point 1526.	Nearest donor distance: 5.7595865316e+00.
   Bad match for point 1527.	Nearest donor distance: 5.7595865316e+00.
   Bad match for point 1528.	Nearest donor distance: 5.7595865316e+00.
   Bad match for point 1529.	Nearest donor distance: 5.7595865316e+00.
   Bad match for point 1530.	Nearest donor distance: 5.7595865316e+00.
   Bad match for point 1531.	Nearest donor distance: 5.7595865316e+00.
   Bad match for point 1532.	Nearest donor distance: 5.7595865316e+00.
   Bad match for point 1533.	Nearest donor distance: 5.7595865316e+00.
   Bad match for point 1534.	Nearest donor distance: 5.7595865316e+00.
   Bad match for point 1189.	Nearest donor distance: 5.7595865316e+00.
   Bad match for point 1535.	Nearest donor distance: 5.7595865316e+00.
   Bad match for point 1191.	Nearest donor distance: 5.7595865316e+00.
   Bad match for point 1536.	Nearest donor distance: 5.7595865316e+00.
   Bad match for point 1537.	Nearest donor distance: 5.7595865316e+00.
   Bad match for point 1538.	Nearest donor distance: 5.7595865316e+00.
   Bad match for point 1539.	Nearest donor distance: 5.7595865316e+00.
   Bad match for point 1540.	Nearest donor distance: 5.7595865316e+00.
   Bad match for point 1541.	Nearest donor distance: 5.7595865316e+00.
   Bad match for point 1542.	Nearest donor distance: 5.7595865316e+00.
   Bad match for point 1543.	Nearest donor distance: 5.7595865316e+00.
   Bad match for point 1544.	Nearest donor distance: 5.7595865316e+00.
   Bad match for point 1545.	Nearest donor distance: 5.7595865316e+00.
   Bad match for point 1546.	Nearest donor distance: 5.7595865316e+00.
   Bad match for point 1547.	Nearest donor distance: 5.7595865316e+00.
   Bad match for point 1548.	Nearest donor distance: 5.7595865316e+00.
   Bad match for point 1549.	Nearest donor distance: 5.7595865316e+00.
   Bad match for point 1550.	Nearest donor distance: 5.7595865316e+00.
   Bad match for point 1551.	Nearest donor distance: 5.7595865316e+00.
   Bad match for point 1552.	Nearest donor distance: 5.7595865316e+00.
   Bad match for point 1553.	Nearest donor distance: 5.7595865316e+00.
   Bad match for point 1554.	Nearest donor distance: 5.7595865316e+00.
   Bad match for point 1555.	Nearest donor distance: 5.7595865316e+00.
   Bad match for point 1556.	Nearest donor distance: 5.7595865316e+00.
   Bad match for point 1557.	Nearest donor distance: 5.7595865316e+00.
   Bad match for point 1558.	Nearest donor distance: 5.7595865316e+00.
   Bad match for point 1559.	Nearest donor distance: 5.7595865316e+00.
   Bad match for point 1560.	Nearest donor distance: 5.7595865316e+00.
   Bad match for point 1561.	Nearest donor distance: 5.7595865316e+00.
   Bad match for point 1562.	Nearest donor distance: 5.7595865316e+00.
   Bad match for point 1563.	Nearest donor distance: 5.7595865316e+00.
   Bad match for point 1564.	Nearest donor distance: 5.7595865316e+00.
   Bad match for point 1565.	Nearest donor distance: 5.7595865316e+00.
   Bad match for point 1566.	Nearest donor distance: 5.7595865316e+00.
   Bad match for point 1567.	Nearest donor distance: 5.7595865316e+00.
   Bad match for point 1568.	Nearest donor distance: 5.7595865316e+00.
   Bad match for point 1569.	Nearest donor distance: 5.7595865316e+00.
   Bad match for point 1570.	Nearest donor distance: 5.7595865316e+00.
   Bad match for point 1571.	Nearest donor distance: 5.7595865316e+00.
   Bad match for point 1572.	Nearest donor distance: 5.7595865316e+00.
   Bad match for point 1573.	Nearest donor distance: 5.7595865316e+00.
   Bad match for point 1574.	Nearest donor distance: 5.7595865316e+00.
   Bad match for point 1575.	Nearest donor distance: 5.7595865316e+00.
   Bad match for point 1576.	Nearest donor distance: 5.7595865316e+00.
   Bad match for point 1577.	Nearest donor distance: 5.7595865316e+00.
   Bad match for point 1578.	Nearest donor distance: 5.7595865316e+00.
   Bad match for point 1579.	Nearest donor distance: 5.7595865316e+00.
   Bad match for point 1580.	Nearest donor distance: 5.7595865316e+00.
   Bad match for point 1581.	Nearest donor distance: 5.7595865316e+00.
   Bad match for point 1582.	Nearest donor distance: 5.7595865316e+00.
   Bad match for point 1583.	Nearest donor distance: 5.7595865316e+00.
   Bad match for point 1584.	Nearest donor distance: 5.7595865316e+00.
   Bad match for point 1585.	Nearest donor distance: 5.7595865316e+00.
   Bad match for point 1586.	Nearest donor distance: 5.7595865316e+00.
   Bad match for point 1587.	Nearest donor distance: 5.7595865316e+00.
   Bad match for point 1588.	Nearest donor distance: 5.7595865316e+00.
   Bad match for point 1589.	Nearest donor distance: 5.7595865316e+00.
   Bad match for point 1590.	Nearest donor distance: 5.7595865316e+00.
   Bad match for point 1591.	Nearest donor distance: 5.7595865316e+00.
   Bad match for point 1592.	Nearest donor distance: 5.7595865316e+00.
   Bad match for point 1593.	Nearest donor distance: 5.7595865316e+00.
   Bad match for point 1594.	Nearest donor distance: 5.7595865316e+00.
   Bad match for point 1595.	Nearest donor distance: 5.7595865316e+00.
   Bad match for point 1596.	Nearest donor distance: 5.7595865316e+00.
   Bad match for point 1597.	Nearest donor distance: 5.7595865316e+00.
   Bad match for point 1598.	Nearest donor distance: 5.7595865316e+00.
   Bad match for point 1599.	Nearest donor distance: 5.7595865316e+00.
   Bad match for point 1600.	Nearest donor distance: 5.7595865316e+00.
   Bad match for point 1601.	Nearest donor distance: 5.7595865316e+00.
   Bad match for point 1602.	Nearest donor distance: 5.7595865316e+00.
   Bad match for point 1603.	Nearest donor distance: 5.7595865316e+00.
   Bad match for point 1604.	Nearest donor distance: 5.7595865316e+00.
   Bad match for point 1605.	Nearest donor distance: 5.7595865316e+00.
   Bad match for point 1606.	Nearest donor distance: 5.7595865316e+00.
   Bad match for point 1607.	Nearest donor distance: 5.7595865316e+00.
   Bad match for point 1608.	Nearest donor distance: 5.7595865316e+00.
   Bad match for point 1609.	Nearest donor distance: 5.7595865316e+00.
   Bad match for point 1610.	Nearest donor distance: 5.7595865316e+00.
   Bad match for point 1611.	Nearest donor distance: 5.7595865316e+00.
   Bad match for point 1612.	Nearest donor distance: 5.7595865316e+00.
   Bad match for point 1613.	Nearest donor distance: 5.7595865316e+00.
   Bad match for point 1614.	Nearest donor distance: 5.7595865316e+00.
   Bad match for point 1615.	Nearest donor distance: 5.7595865316e+00.
   Bad match for point 1616.	Nearest donor distance: 5.7595865316e+00.
   Bad match for point 1617.	Nearest donor distance: 5.7595865316e+00.
   Bad match for point 1618.	Nearest donor distance: 5.7595865316e+00.
   Bad match for point 1619.	Nearest donor distance: 5.7595865316e+00.
   Bad match for point 1620.	Nearest donor distance: 5.7595865316e+00.
   Bad match for point 1621.	Nearest donor distance: 5.7595865316e+00.
   Bad match for point 1622.	Nearest donor distance: 5.7595865316e+00.
   Bad match for point 1623.	Nearest donor distance: 5.7595865316e+00.
   Bad match for point 1624.	Nearest donor distance: 5.7595865316e+00.
   Bad match for point 1625.	Nearest donor distance: 5.7595865316e+00.
   Bad match for point 1626.	Nearest donor distance: 5.7595865316e+00.
   Bad match for point 1627.	Nearest donor distance: 5.7595865316e+00.
   Bad match for point 1628.	Nearest donor distance: 5.7595865316e+00.
   Bad match for point 1629.	Nearest donor distance: 5.7595865316e+00.
   Bad match for point 1630.	Nearest donor distance: 5.7595865316e+00.
   Bad match for point 1631.	Nearest donor distance: 5.7595865316e+00.
   Bad match for point 1632.	Nearest donor distance: 5.7595865316e+00.
   Bad match for point 1633.	Nearest donor distance: 5.7595865316e+00.
   Bad match for point 1634.	Nearest donor distance: 5.7595865316e+00.
   Bad match for point 1635.	Nearest donor distance: 5.7595865316e+00.
   Bad match for point 1636.	Nearest donor distance: 5.7595865316e+00.
   Bad match for point 1637.	Nearest donor distance: 5.7595865316e+00.
   Bad match for point 1638.	Nearest donor distance: 5.7595865316e+00.
   Bad match for point 1639.	Nearest donor distance: 5.7595865316e+00.
   Bad match for point 1640.	Nearest donor distance: 5.7595865316e+00.
   Bad match for point 1641.	Nearest donor distance: 5.7595865316e+00.
   Bad match for point 1642.	Nearest donor distance: 5.7595865316e+00.
   Bad match for point 1643.	Nearest donor distance: 5.7595865316e+00.
   Bad match for point 1644.	Nearest donor distance: 5.7595865316e+00.
   Bad match for point 1645.	Nearest donor distance: 5.7595865316e+00.
   Bad match for point 1646.	Nearest donor distance: 5.7595865316e+00.
   Bad match for point 1647.	Nearest donor distance: 5.7595865316e+00.
   Bad match for point 1648.	Nearest donor distance: 5.7595865316e+00.
   Bad match for point 1649.	Nearest donor distance: 5.7595865316e+00.
   Bad match for point 1650.	Nearest donor distance: 5.7595865316e+00.
   Bad match for point 1651.	Nearest donor distance: 5.7595865316e+00.
   Bad match for point 1652.	Nearest donor distance: 5.7595865316e+00.
   Bad match for point 1653.	Nearest donor distance: 5.7595865316e+00.
   Bad match for point 1654.	Nearest donor distance: 5.7595865316e+00.
   Bad match for point 1655.	Nearest donor distance: 5.7595865316e+00.
   Bad match for point 1656.	Nearest donor distance: 5.7595865316e+00.
   Bad match for point 1657.	Nearest donor distance: 5.7595865316e+00.
   Bad match for point 1658.	Nearest donor distance: 5.7595865316e+00.
   Bad match for point 1659.	Nearest donor distance: 5.7595865316e+00.
   Bad match for point 1660.	Nearest donor distance: 5.7595865316e+00.
   Bad match for point 1661.	Nearest donor distance: 5.7595865316e+00.
   Bad match for point 1662.	Nearest donor distance: 5.7595865316e+00.
   Bad match for point 1663.	Nearest donor distance: 5.7595865316e+00.
   Bad match for point 1664.	Nearest donor distance: 5.7595865316e+00.
   Bad match for point 1665.	Nearest donor distance: 5.7595865316e+00.
   Bad match for point 1666.	Nearest donor distance: 5.7595865316e+00.
   Bad match for point 1667.	Nearest donor distance: 5.7595865316e+00.
   Bad match for point 1668.	Nearest donor distance: 5.7595865316e+00.
   Bad match for point 1669.	Nearest donor distance: 5.7595865316e+00.
   Bad match for point 1670.	Nearest donor distance: 5.7595865316e+00.
   Bad match for point 1671.	Nearest donor distance: 5.7595865316e+00.
   Bad match for point 1672.	Nearest donor distance: 5.7595865316e+00.
   Bad match for point 1673.	Nearest donor distance: 5.7595865316e+00.
   Bad match for point 1674.	Nearest donor distance: 5.7595865316e+00.
   Bad match for point 1675.	Nearest donor distance: 5.7595865316e+00.
   Bad match for point 1676.	Nearest donor distance: 5.7595865316e+00.
   Bad match for point 1677.	Nearest donor distance: 5.7595865316e+00.
   Bad match for point 1678.	Nearest donor distance: 5.7595865316e+00.
   Bad match for point 1679.	Nearest donor distance: 5.7595865316e+00.
   Bad match for point 1680.	Nearest donor distance: 5.7595865316e+00.
   Bad match for point 1681.	Nearest donor distance: 5.7595865316e+00.
   Bad match for point 1682.	Nearest donor distance: 5.7595865316e+00.
   Bad match for point 1683.	Nearest donor distance: 5.7595865316e+00.
   Bad match for point 1684.	Nearest donor distance: 5.7595865316e+00.
   Bad match for point 1685.	Nearest donor distance: 5.7595865316e+00.
   Bad match for point 1686.	Nearest donor distance: 5.7595865316e+00.
   Bad match for point 1687.	Nearest donor distance: 5.7595865316e+00.
   Bad match for point 1688.	Nearest donor distance: 5.7595865316e+00.
   Bad match for point 1689.	Nearest donor distance: 5.7595865316e+00.
   Bad match for point 1690.	Nearest donor distance: 5.7595865316e+00.
   Bad match for point 1691.	Nearest donor distance: 5.7595865316e+00.
   Bad match for point 1692.	Nearest donor distance: 5.7595865316e+00.
   Bad match for point 1693.	Nearest donor distance: 5.7595865316e+00.
   Bad match for point 1694.	Nearest donor distance: 5.7595865316e+00.
   Bad match for point 1695.	Nearest donor distance: 5.7595865316e+00.
   Bad match for point 1696.	Nearest donor distance: 5.7595865316e+00.
   Bad match for point 1697.	Nearest donor distance: 5.7595865316e+00.
   Bad match for point 1698.	Nearest donor distance: 5.7595865316e+00.
   Bad match for point 1699.	Nearest donor distance: 5.7595865316e+00.
   Bad match for point 1700.	Nearest donor distance: 5.7595865316e+00.
   Bad match for point 1701.	Nearest donor distance: 5.7595865316e+00.
   Bad match for point 1702.	Nearest donor distance: 5.7595865316e+00.
   Bad match for point 1703.	Nearest donor distance: 5.7595865316e+00.
   Bad match for point 1704.	Nearest donor distance: 5.7595865316e+00.
   Bad match for point 1705.	Nearest donor distance: 5.7595865316e+00.
   Bad match for point 1706.	Nearest donor distance: 5.7595865316e+00.
   Bad match for point 1707.	Nearest donor distance: 5.7595865316e+00.
   Bad match for point 1708.	Nearest donor distance: 5.7595865316e+00.
   Bad match for point 1709.	Nearest donor distance: 5.7595865316e+00.
   Bad match for point 1710.	Nearest donor distance: 5.7595865316e+00.
   Bad match for point 1711.	Nearest donor distance: 5.7595865316e+00.
   Bad match for point 1712.	Nearest donor distance: 5.7595865316e+00.
   Bad match for point 1713.	Nearest donor distance: 5.7595865316e+00.
   Bad match for point 1714.	Nearest donor distance: 5.7595865316e+00.
   Bad match for point 1715.	Nearest donor distance: 5.7595865316e+00.
   Bad match for point 1716.	Nearest donor distance: 5.7595865316e+00.
   Bad match for point 1717.	Nearest donor distance: 5.7595865316e+00.
   Bad match for point 1718.	Nearest donor distance: 5.7595865316e+00.
   Bad match for point 1719.	Nearest donor distance: 5.7595865316e+00.
   Bad match for point 1720.	Nearest donor distance: 5.7595865316e+00.
   Bad match for point 1721.	Nearest donor distance: 5.7595865316e+00.
   Bad match for point 1722.	Nearest donor distance: 5.7595865316e+00.
   Bad match for point 1723.	Nearest donor distance: 5.7595865316e+00.
   Bad match for point 1724.	Nearest donor distance: 5.7595865316e+00.
   Bad match for point 1725.	Nearest donor distance: 5.7595865316e+00.
   Bad match for point 1726.	Nearest donor distance: 5.7595865316e+00.
   Bad match for point 1727.	Nearest donor distance: 5.7595865316e+00.
   Bad match for point 1728.	Nearest donor distance: 5.7595865316e+00.
   Bad match for point 1729.	Nearest donor distance: 5.7595865316e+00.
   Bad match for point 1730.	Nearest donor distance: 5.7595865316e+00.
   Bad match for point 1731.	Nearest donor distance: 5.7595865316e+00.
   Bad match for point 1732.	Nearest donor distance: 5.7595865316e+00.
   Bad match for point 1733.	Nearest donor distance: 5.7595865316e+00.
   Bad match for point 1734.	Nearest donor distance: 5.7595865316e+00.
   Bad match for point 1735.	Nearest donor distance: 5.7595865316e+00.
   Bad match for point 1736.	Nearest donor distance: 5.7595865316e+00.
   Bad match for point 1737.	Nearest donor distance: 5.7595865316e+00.
   Bad match for point 1738.	Nearest donor distance: 5.7595865316e+00.
   Bad match for point 1739.	Nearest donor distance: 5.7595865316e+00.
   Bad match for point 1740.	Nearest donor distance: 5.7595865316e+00.
   Bad match for point 1741.	Nearest donor distance: 5.7595865316e+00.
   Bad match for point 1742.	Nearest donor distance: 5.7595865316e+00.
   Bad match for point 1743.	Nearest donor distance: 5.7595865316e+00.
   Bad match for point 1744.	Nearest donor distance: 5.7595865316e+00.
   Bad match for point 1745.	Nearest donor distance: 5.7595865316e+00.
   Bad match for point 1746.	Nearest donor distance: 5.7595865316e+00.
   Bad match for point 1747.	Nearest donor distance: 5.7595865316e+00.
   Bad match for point 1748.	Nearest donor distance: 5.7595865316e+00.
   Bad match for point 1749.	Nearest donor distance: 5.7595865316e+00.
   Bad match for point 1750.	Nearest donor distance: 5.7595865316e+00.
   Bad match for point 1751.	Nearest donor distance: 5.7595865316e+00.
   Bad match for point 1752.	Nearest donor distance: 5.7595865316e+00.
   Bad match for point 1753.	Nearest donor distance: 5.7595865316e+00.
   Bad match for point 1190.	Nearest donor distance: 5.7595865316e+00. Matched 442 points with a max distance of: 0.0000000000e+00.


 !!! Warning !!!
Bad matches found. Computation will continue, but be cautious.
Computing wall distances.

-------------------- Solver Preprocessing ( Zone 0 ) --------------------
Viscous flow: Computing pressure using the ideal gas law
based on the free-stream temperature and a density computed
from the Reynolds number.
Force coefficients computed using free-stream values.

-- Models:
+------------------------------------------------------------------------------+
|          Viscosity Model|        Conductivity Model|              Fluid Model|
+------------------------------------------------------------------------------+
|               SUTHERLAND|          CONSTANT_PRANDTL|             STANDARD_AIR|
+------------------------------------------------------------------------------+
-- Fluid properties:
+------------------------------------------------------------------------------+
|                  Name|    Dim. value|    Ref. value|      Unit|Non-dim. value|
+------------------------------------------------------------------------------+
|        Ref. Viscosity|     3.737e-07|             1|lbf.s/ft^2|     3.737e-07|
|      Sutherland Temp.|        518.67|             1|         R|        518.67|
|     Sutherland Const.|        198.72|             1|         R|        198.72|
+------------------------------------------------------------------------------+
|        Prandtl (Lam.)|             -|             -|         -|          0.72|
|       Prandtl (Turb.)|             -|             -|         -|           0.9|
+------------------------------------------------------------------------------+
|          Gas Constant|       1716.49|             1|lbf.ft/slug.R|       1716.49|
|      Spec. Heat Ratio|             -|             -|         -|           1.4|
+------------------------------------------------------------------------------+
-- Initial and free-stream conditions:
+------------------------------------------------------------------------------+
|                  Name|    Dim. value|    Ref. value|      Unit|Non-dim. value|
+------------------------------------------------------------------------------+
|       Static Pressure|       2116.19|             1|       psf|       2116.19|
|               Density|   0.000742687|             1| slug/ft^3|   0.000742687|
|           Temperature|          1660|             1|         R|          1660|
|          Total Energy|   7.30294e+06|             1|  ft^2/s^2|   7.30294e+06|
|            Velocity-X|       599.184|             1|      ft/s|       599.184|
|            Velocity-Y|             0|             1|      ft/s|             0|
|    Velocity Magnitude|       599.184|             1|      ft/s|       599.184|
+------------------------------------------------------------------------------+
|             Viscosity|   8.25829e-07|             1|lbf.s/ft^2|   8.25829e-07|
|          Conductivity|             -|             1|lbf/ft.s.R|             -|
+------------------------------------------------------------------------------+
|           Mach Number|             -|             -|         -|           0.3|
|       Reynolds Number|             -|             -|         -|         89810|
+------------------------------------------------------------------------------+
Initialize Jacobian structure (Navier-Stokes). MG level: 0.

------------------- Numerics Preprocessing ( Zone 0 ) -------------------

----------------- Integration Preprocessing ( Zone 0 ) ------------------

------------------- Iteration Preprocessing ( Zone 0 ) ------------------
Euler/Navier-Stokes/RANS fluid iteration.

------------------------------ Begin Solver -----------------------------

Simulation Run using the Single-zone Driver
WARNING: SU2 was not compiled for an AVX-capable architecture. Performance could be better,
         see https://su2code.github.io/docs_v7/Build-SU2-Linux-MacOS/#compiler-optimizations
+-----------------------------------------------------------------------------+
|  Inner_Iter|   Time(sec)|    rms[Rho]|   rms[RhoU]|   rms[RhoV]|   rms[RhoE]|
+-----------------------------------------------------------------------------+
|           0|  5.2700e-01|   -4.945330|   -5.354699|  -10.421451|    2.061236|
|           1|  4.5150e-01|   -5.078132|   -1.760368|   -2.184989|    1.931551|
|           2|  4.2067e-01|   -5.101283|   -1.782139|   -2.154564|    1.907157|
|           3|  4.0825e-01|   -5.125899|   -1.805564|   -2.134299|    1.881420|
|           4|  4.0820e-01|   -5.151725|   -1.835600|   -2.116473|    1.854827|
|           5|  4.0750e-01|   -5.178475|   -1.870135|   -2.100591|    1.827402|
|           6|  4.0786e-01|   -5.205310|   -1.910620|   -2.087557|    1.800087|
|           7|  4.1013e-01|   -5.232019|   -1.953489|   -2.078044|    1.772860|
|           8|  4.1522e-01|   -5.258814|   -1.995591|   -2.068030|    1.745817|
|           9|  4.1820e-01|   -5.280366|   -2.041218|   -2.061962|    1.724315|
|          10|  4.2073e-01|   -5.295357|   -2.083560|   -2.059711|    1.709501|
|          11|  4.2558e-01|   -5.308161|   -2.125487|   -2.066569|    1.697302|
|          12|  4.2962e-01|   -5.320579|   -2.162134|   -2.077902|    1.685371|
|          13|  4.3650e-01|   -5.339135|   -2.193401|   -2.090247|    1.666911|
|          14|  4.4520e-01|   -5.364389|   -2.211693|   -2.104090|    1.641335|
|          15|  4.5356e-01|   -5.391362|   -2.221743|   -2.116413|    1.614008|
|          16|  4.6259e-01|   -5.421583|   -2.230057|   -2.116806|    1.583355|
|          17|  4.7367e-01|   -5.448298|   -2.242252|   -2.107246|    1.556016|
|          18|  4.8563e-01|   -5.455382|   -2.265699|   -2.117823|    1.548020|
|          19|  4.9935e-01|   -5.459235|   -2.300518|   -2.182575|    1.542016|
|          20|  5.1271e-01|   -5.487574|   -2.337049|   -2.295008|    1.510439|
|          21|  5.3223e-01|   -5.523503|   -2.362561|   -2.372564|    1.473737|
|          22|  5.5157e-01|   -5.532984|   -2.390561|   -2.343085|    1.466342|
|          23|  5.7317e-01|   -5.538433|   -2.430939|   -2.315022|    1.462127|
|          24|  5.9144e-01|   -5.590463|   -2.488850|   -2.361406|    1.409597|
|          25|  6.1050e-01|   -5.667301|   -2.545424|   -2.470973|    1.330386|
|          26|  6.2644e-01|   -5.711000|   -2.580707|   -2.553535|    1.285930|
|          27|  6.4021e-01|   -5.732468|   -2.594762|   -2.570702|    1.265673|
|          28|  6.5255e-01|   -5.757803|   -2.596187|   -2.552278|    1.242084|
|          29|  6.6633e-01|   -5.780568|   -2.591077|   -2.544174|    1.221576|
|          30|  6.7674e-01|   -5.804491|   -2.585587|   -2.562096|    1.200377|
|          31|  6.8594e-01|   -5.821891|   -2.578981|   -2.594359|    1.185657|
|          32|  6.9467e-01|   -5.823597|   -2.571718|   -2.626467|    1.185518|
|          33|  7.0435e-01|   -5.828605|   -2.571642|   -2.654507|    1.180778|
|          34|  7.1360e-01|   -5.840022|   -2.574023|   -2.675266|    1.168692|
|          35|  7.2275e-01|   -5.851321|   -2.578166|   -2.683769|    1.156300|
|          36|  7.3246e-01|   -5.859167|   -2.581204|   -2.689419|    1.147303|
|          37|  7.4192e-01|   -5.862689|   -2.582929|   -2.692224|    1.142727|
|          38|  7.5177e-01|   -5.865132|   -2.582587|   -2.696781|    1.139289|
|          39|  7.6002e-01|   -5.869091|   -2.580126|   -2.698449|    1.134599|
|          40|  7.6780e-01|   -5.879199|   -2.577325|   -2.702009|    1.123937|
|          41|  7.7495e-01|   -5.893022|   -2.573010|   -2.702879|    1.109909|
|          42|  7.8163e-01|   -5.912261|   -2.568609|   -2.705839|    1.090858|
|          43|  7.8716e-01|   -5.930626|   -2.565451|   -2.711008|    1.073254|
|          44|  7.9253e-01|   -5.947380|   -2.566213|   -2.717493|    1.057659|
|          45|  7.9763e-01|   -5.952698|   -2.569360|   -2.721764|    1.053853|
|          46|  8.0264e-01|   -5.945760|   -2.576474|   -2.723121|    1.062622|
|          47|  8.0750e-01|   -5.930676|   -2.587947|   -2.720690|    1.079267|
|          48|  8.1204e-01|   -5.911022|   -2.599386|   -2.716882|    1.100163|
|          49|  8.1728e-01|   -5.894889|   -2.611488|   -2.712615|    1.117253|
|          50|  8.2167e-01|   -5.884803|   -2.623511|   -2.708401|    1.127775|
|          51|  8.2644e-01|   -5.880509|   -2.632146|   -2.705424|    1.132055|
|          52|  8.3157e-01|   -5.885290|   -2.641190|   -2.706083|    1.126748|
|          53|  8.3500e-01|   -5.895129|   -2.647486|   -2.707754|    1.116018|
|          54|  8.3922e-01|   -5.908893|   -2.653928|   -2.709440|    1.100906|
|          55|  8.4366e-01|   -5.924469|   -2.660785|   -2.710414|    1.083765|
|          56|  8.4707e-01|   -5.939069|   -2.667693|   -2.709999|    1.067575|
|          57|  8.5033e-01|   -5.950747|   -2.674519|   -2.707957|    1.054504|
|          58|  8.5375e-01|   -5.959408|   -2.680255|   -2.704403|    1.044941|
|          59|  8.5742e-01|   -5.967804|   -2.683298|   -2.701003|    1.036297|
|          60|  8.6062e-01|   -5.973572|   -2.683119|   -2.696976|    1.030905|
|          61|  8.6406e-01|   -5.980680|   -2.679797|   -2.693392|    1.024678|
|          62|  8.6694e-01|   -5.992073|   -2.673359|   -2.691510|    1.014504|
|          63|  8.7003e-01|   -6.004234|   -2.664500|   -2.689591|    1.003805|
|          64|  8.7365e-01|   -6.020189|   -2.654398|   -2.688808|    0.989487|
|          65|  8.7614e-01|   -6.038948|   -2.643609|   -2.688434|    0.972438|
|          66|  8.7904e-01|   -6.060999|   -2.633802|   -2.689860|    0.952119|
|          67|  8.8122e-01|   -6.080825|   -2.623768|   -2.692589|    0.934023|
|          68|  8.8393e-01|   -6.099625|   -2.615985|   -2.696027|    0.916868|
|          69|  8.8607e-01|   -6.113326|   -2.609809|   -2.699448|    0.904566|
|          70|  8.8804e-01|   -6.120403|   -2.605920|   -2.701785|    0.898115|
|          71|  8.9040e-01|   -6.118529|   -2.603778|   -2.703011|    0.899994|
|          72|  8.9273e-01|   -6.111548|   -2.603446|   -2.704250|    0.906333|
|          73|  8.9451e-01|   -6.101045|   -2.605711|   -2.705109|    0.915392|
|          74|  8.9637e-01|   -6.091102|   -2.608605|   -2.705664|    0.924107|
|          75|  8.9854e-01|   -6.081251|   -2.612352|   -2.705335|    0.932747|
|          76|  9.0101e-01|   -6.072579|   -2.616587|   -2.704990|    0.940233|
|          77|  9.0328e-01|   -6.067976|   -2.620464|   -2.704822|    0.943896|
|          78|  9.0508e-01|   -6.064788|   -2.624074|   -2.704429|    0.946349|
|          79|  9.0707e-01|   -6.064519|   -2.626716|   -2.704914|    0.946182|
|          80|  9.0864e-01|   -6.068414|   -2.629419|   -2.706348|    0.942001|
|          81|  9.1105e-01|   -6.072297|   -2.632204|   -2.707957|    0.937782|
|          82|  9.1319e-01|   -6.077644|   -2.634857|   -2.709301|    0.932368|
|          83|  9.1511e-01|   -6.082942|   -2.637472|   -2.711074|    0.927116|
|          84|  9.1746e-01|   -6.090199|   -2.640519|   -2.712749|    0.919915|
|          85|  9.1978e-01|   -6.096233|   -2.643427|   -2.714292|    0.913896|
|          86|  9.2151e-01|   -6.103449|   -2.646554|   -2.715925|    0.906686|
|          87|  9.2366e-01|   -6.111215|   -2.650889|   -2.717030|    0.898733|
|          88|  9.2549e-01|   -6.120089|   -2.655087|   -2.718024|    0.889456|
|          89|  9.2739e-01|   -6.136095|   -2.658981|   -2.719608|    0.873010|
|          90|  9.2888e-01|   -6.151446|   -2.662911|   -2.721056|    0.857294|
|          91|  9.3063e-01|   -6.166291|   -2.666484|   -2.722397|    0.842226|
|          92|  9.3168e-01|   -6.185481|   -2.669777|   -2.723665|    0.823196|
|          93|  9.3311e-01|   -6.204595|   -2.673803|   -2.724630|    0.804530|
|          94|  9.3416e-01|   -6.217207|   -2.676765|   -2.725030|    0.792737|
|          95|  9.3521e-01|   -6.231153|   -2.679907|   -2.725344|    0.779913|
|          96|  9.3627e-01|   -6.246985|   -2.683651|   -2.725657|    0.765400|
|          97|  9.3660e-01|   -6.254541|   -2.687461|   -2.725099|    0.758858|
|          98|  9.3703e-01|   -6.256733|   -2.691532|   -2.723430|    0.757314|
|          99|  9.3805e-01|   -6.253492|   -2.696207|   -2.721219|    0.761020|
|         100|  9.3872e-01|   -6.246726|   -2.701536|   -2.718953|    0.767845|
|         101|  9.3917e-01|   -6.242110|   -2.707642|   -2.717573|    0.772375|
|         102|  9.3956e-01|   -6.230954|   -2.714379|   -2.714941|    0.783207|
|         103|  9.3997e-01|   -6.215039|   -2.721686|   -2.712235|    0.798911|
|         104|  9.4036e-01|   -6.199101|   -2.727834|   -2.709884|    0.815122|
|         105|  9.4073e-01|   -6.186253|   -2.733943|   -2.708316|    0.828580|
|         106|  9.4116e-01|   -6.173199|   -2.738615|   -2.707485|    0.842350|
|         107|  9.4169e-01|   -6.161717|   -2.743509|   -2.706930|    0.854637|
|         108|  9.4230e-01|   -6.154197|   -2.747865|   -2.706846|    0.862684|
|         109|  9.4318e-01|   -6.147322|   -2.751002|   -2.706231|    0.870269|
|         110|  9.4343e-01|   -6.139111|   -2.753061|   -2.706067|    0.879062|
|         111|  9.4396e-01|   -6.135631|   -2.753484|   -2.706652|    0.883275|
|         112|  9.4459e-01|   -6.134911|   -2.753284|   -2.707575|    0.884772|
|         113|  9.4502e-01|   -6.132606|   -2.751674|   -2.708567|    0.887691|
|         114|  9.4575e-01|   -6.138759|   -2.749431|   -2.710576|    0.882329|
|         115|  9.4648e-01|   -6.145239|   -2.748697|   -2.712310|    0.876272|
|         116|  9.4688e-01|   -6.153691|   -2.748656|   -2.714617|    0.867869|
|         117|  9.4743e-01|   -6.164912|   -2.749970|   -2.717701|    0.856395|
|         118|  9.4805e-01|   -6.179638|   -2.753567|   -2.720920|    0.841212|
|         119|  9.4866e-01|   -6.195112|   -2.759319|   -2.724447|    0.824694|
|         120|  9.4972e-01|   -6.213428|   -2.765937|   -2.729106|    0.804885|
|         121|  9.5084e-01|   -6.230322|   -2.772332|   -2.733820|    0.786001|
|         122|  9.5207e-01|   -6.245202|   -2.779335|   -2.737766|    0.768780|
|         123|  9.5310e-01|   -6.257318|   -2.786718|   -2.742713|    0.754186|
|         124|  9.5383e-01|   -6.272866|   -2.794658|   -2.748867|    0.736067|
|         125|  9.5464e-01|   -6.282104|   -2.801857|   -2.754530|    0.724232|
|         126|  9.5541e-01|   -6.287404|   -2.809019|   -2.759829|    0.716650|
|         127|  9.5614e-01|   -6.296352|   -2.816693|   -2.767277|    0.705655|
|         128|  9.5683e-01|   -6.296678|   -2.824269|   -2.773378|    0.704168|
|         129|  9.5782e-01|   -6.299654|   -2.831157|   -2.781063|    0.700353|
|         130|  9.5899e-01|   -6.302803|   -2.837766|   -2.788678|    0.696954|
|         131|  9.6011e-01|   -6.306889|   -2.844736|   -2.797309|    0.693023|
|         132|  9.6147e-01|   -6.313022|   -2.850900|   -2.805862|    0.686847|
|         133|  9.6280e-01|   -6.316476|   -2.855445|   -2.814508|    0.683696|
|         134|  9.6421e-01|   -6.329466|   -2.861263|   -2.824428|    0.670469|
|         135|  9.6537e-01|   -6.339154|   -2.865523|   -2.833866|    0.660727|
|         136|  9.6632e-01|   -6.354864|   -2.868756|   -2.843602|    0.644848|
|         137|  9.6788e-01|   -6.360382|   -2.870084|   -2.851805|    0.639805|
|         138|  9.6934e-01|   -6.377575|   -2.870544|   -2.861256|    0.623024|
|         139|  9.7037e-01|   -6.390249|   -2.868682|   -2.869324|    0.611215|
|         140|  9.7141e-01|   -6.404408|   -2.866285|   -2.876668|    0.598122|
|         141|  9.7248e-01|   -6.417285|   -2.863930|   -2.884611|    0.586682|
|         142|  9.7378e-01|   -6.424856|   -2.861177|   -2.891167|    0.581121|
|         143|  9.7461e-01|   -6.432838|   -2.858148|   -2.896941|    0.575580|
|         144|  9.7543e-01|   -6.431905|   -2.855389|   -2.901464|    0.578581|
|         145|  9.7633e-01|   -6.429810|   -2.853753|   -2.904409|    0.582606|
|         146|  9.7732e-01|   -6.430608|   -2.853056|   -2.909156|    0.583407|
|         147|  9.7809e-01|   -6.426942|   -2.853358|   -2.912148|    0.588370|
|         148|  9.7886e-01|   -6.419494|   -2.853627|   -2.913137|    0.596627|
|         149|  9.7961e-01|   -6.413593|   -2.854873|   -2.915368|    0.602957|
|         150|  9.8048e-01|   -6.411975|   -2.855813|   -2.917317|    0.604858|
|         151|  9.8097e-01|   -6.418460|   -2.858372|   -2.920003|    0.598415|
|         152|  9.8163e-01|   -6.416527|   -2.859953|   -2.921875|    0.599867|
|         153|  9.8208e-01|   -6.415075|   -2.861239|   -2.923157|    0.601105|
|         154|  9.8232e-01|   -6.408089|   -2.861159|   -2.922949|    0.607294|
|         155|  9.8257e-01|   -6.410496|   -2.861774|   -2.923755|    0.604497|
|         156|  9.8293e-01|   -6.409431|   -2.860875|   -2.924390|    0.605034|
|         157|  9.8323e-01|   -6.409947|   -2.859493|   -2.924457|    0.604052|
|         158|  9.8358e-01|   -6.408918|   -2.857652|   -2.924320|    0.604919|
|         159|  9.8385e-01|   -6.401700|   -2.854632|   -2.924110|    0.611945|
|         160|  9.8407e-01|   -6.407676|   -2.851220|   -2.924415|    0.605913|
|         161|  9.8433e-01|   -6.405833|   -2.847796|   -2.923133|    0.607823|
|         162|  9.8453e-01|   -6.410111|   -2.844085|   -2.924045|    0.603797|
|         163|  9.8474e-01|   -6.416695|   -2.840707|   -2.923585|    0.597572|
|         164|  9.8500e-01|   -6.418840|   -2.837143|   -2.924249|    0.595541|
|         165|  9.8522e-01|   -6.423774|   -2.833476|   -2.924167|    0.590981|
|         166|  9.8575e-01|   -6.420661|   -2.830490|   -2.922372|    0.594307|
|         167|  9.8617e-01|   -6.425955|   -2.829188|   -2.922122|    0.589269|
|         168|  9.8643e-01|   -6.424371|   -2.827111|   -2.921598|    0.591039|
|         169|  9.8684e-01|   -6.427079|   -2.825302|   -2.921340|    0.588450|
|         170|  9.8716e-01|   -6.431389|   -2.824306|   -2.921091|    0.584019|
|         171|  9.8777e-01|   -6.439802|   -2.823424|   -2.921530|    0.575576|
|         172|  9.8809e-01|   -6.445301|   -2.822255|   -2.921030|    0.570086|
|         173|  9.8850e-01|   -6.444089|   -2.821068|   -2.919215|    0.571154|
|         174|  9.8919e-01|   -6.438522|   -2.819227|   -2.917781|    0.576544|
|         175|  9.9001e-01|   -6.445085|   -2.817692|   -2.917326|    0.569496|
|         176|  9.9073e-01|   -6.443205|   -2.815522|   -2.916204|    0.570816|
|         177|  9.9126e-01|   -6.443537|   -2.812692|   -2.914773|    0.570086|
|         178|  9.9193e-01|   -6.444700|   -2.809361|   -2.913092|    0.568626|
|         179|  9.9251e-01|   -6.443223|   -2.805338|   -2.911694|    0.569678|
|         180|  9.9303e-01|   -6.443579|   -2.800982|   -2.910124|    0.568753|
|         181|  9.9366e-01|   -6.448793|   -2.795514|   -2.909249|    0.563389|
|         182|  9.9426e-01|   -6.449134|   -2.790990|   -2.907164|    0.563073|
|         183|  9.9484e-01|   -6.445577|   -2.785520|   -2.905559|    0.566480|
|         184|  9.9546e-01|   -6.447208|   -2.780414|   -2.904710|    0.564658|
|         185|  9.9614e-01|   -6.442448|   -2.775463|   -2.903121|    0.569228|
|         186|  9.9663e-01|   -6.442620|   -2.771375|   -2.901486|    0.569383|
|         187|  9.9731e-01|   -6.440658|   -2.767851|   -2.901927|    0.571090|
|         188|  9.9797e-01|   -6.432288|   -2.765452|   -2.899931|    0.579042|
|         189|  9.9867e-01|   -6.436435|   -2.765113|   -2.899079|    0.574909|
|         190|  9.9925e-01|   -6.429565|   -2.763778|   -2.898317|    0.581587|
|         191|  9.9967e-01|   -6.424338|   -2.763305|   -2.896964|    0.586680|
|         192|  1.0003e+00|   -6.422984|   -2.763362|   -2.896594|    0.587825|
|         193|  1.0008e+00|   -6.423222|   -2.763805|   -2.894644|    0.587641|
|         194|  1.0014e+00|   -6.412663|   -2.762657|   -2.893224|    0.598037|
|         195|  1.0021e+00|   -6.415308|   -2.762494|   -2.892067|    0.595027|
|         196|  1.0026e+00|   -6.422846|   -2.761658|   -2.890504|    0.587939|
|         197|  1.0031e+00|   -6.430330|   -2.759471|   -2.889490|    0.580433|
|         198|  1.0036e+00|   -6.423823|   -2.754907|   -2.885575|    0.587066|
|         199|  1.0043e+00|   -6.409796|   -2.749851|   -2.881131|    0.600793|
|         200|  1.0047e+00|   -6.411584|   -2.742590|   -2.878884|    0.599297|
|         201|  1.0053e+00|   -6.428529|   -2.734833|   -2.876756|    0.582836|
|         202|  1.0058e+00|   -6.420446|   -2.725339|   -2.872084|    0.590855|
|         203|  1.0064e+00|   -6.434169|   -2.716396|   -2.869878|    0.577776|
|         204|  1.0071e+00|   -6.437763|   -2.706082|   -2.866623|    0.574381|
|         205|  1.0077e+00|   -6.427021|   -2.696251|   -2.861378|    0.585442|
|         206|  1.0084e+00|   -6.421038|   -2.687299|   -2.858208|    0.591526|
|         207|  1.0091e+00|   -6.428529|   -2.678474|   -2.857368|    0.583898|
|         208|  1.0098e+00|   -6.422494|   -2.670068|   -2.854061|    0.590081|
|         209|  1.0104e+00|   -6.434463|   -2.663208|   -2.851879|    0.577668|
|         210|  1.0108e+00|   -6.424304|   -2.656490|   -2.849999|    0.587643|
|         211|  1.0112e+00|   -6.426908|   -2.650597|   -2.848392|    0.585110|
|         212|  1.0118e+00|   -6.432086|   -2.646204|   -2.847335|    0.579015|
|         213|  1.0125e+00|   -6.433808|   -2.642578|   -2.844782|    0.577217|
|         214|  1.0131e+00|   -6.423012|   -2.640163|   -2.842146|    0.587238|
|         215|  1.0136e+00|   -6.418514|   -2.636644|   -2.840951|    0.591365|
|         216|  1.0139e+00|   -6.418006|   -2.633963|   -2.839014|    0.591624|
|         217|  1.0142e+00|   -6.417943|   -2.630808|   -2.836368|    0.591168|
|         218|  1.0146e+00|   -6.415356|   -2.627027|   -2.833581|    0.592795|
|         219|  1.0137e+00|   -6.401546|   -2.623266|   -2.830219|    0.607345|
|         220|  1.0119e+00|   -6.480145|   -2.626768|   -2.835232|    0.526546|
|         221|  1.0105e+00|   -6.569548|   -2.630125|   -2.839538|    0.432414|
|         222|  1.0091e+00|   -6.564488|   -2.629144|   -2.838984|    0.435687|
|         223|  1.0080e+00|   -6.553917|   -2.626516|   -2.837789|    0.446278|
|         224|  1.0071e+00|   -6.529963|   -2.622635|   -2.833237|    0.472517|
|         225|  1.0055e+00|   -6.511291|   -2.618296|   -2.827701|    0.493215|
|         226|  1.0033e+00|   -6.548161|   -2.618845|   -2.826454|    0.455057|
|         227|  1.0008e+00|   -6.602883|   -2.619526|   -2.826960|    0.397090|
|         228|  9.9821e-01|   -6.633513|   -2.619979|   -2.827395|    0.363911|
|         229|  9.9567e-01|   -6.670269|   -2.620224|   -2.827817|    0.324018|
|         230|  9.9314e-01|   -6.682950|   -2.620273|   -2.827822|    0.309854|
|         231|  9.9075e-01|   -6.680552|   -2.620307|   -2.827279|    0.311849|
|         232|  9.8842e-01|   -6.672092|   -2.620006|   -2.826712|    0.320778|
|         233|  9.8615e-01|   -6.680757|   -2.619522|   -2.827077|    0.310162|
|         234|  9.8400e-01|   -6.677129|   -2.618674|   -2.826673|    0.313103|
|         235|  9.8153e-01|   -6.657770|   -2.617638|   -2.825099|    0.332895|
|         236|  9.7893e-01|   -6.676979|   -2.617311|   -2.825251|    0.310902|
|         237|  9.7643e-01|   -6.692144|   -2.617196|   -2.825569|    0.293145|
|         238|  9.7370e-01|   -6.711669|   -2.617249|   -2.825964|    0.270584|
|         239|  9.7100e-01|   -6.719596|   -2.617294|   -2.825947|    0.261392|
|         240|  9.6833e-01|   -6.722761|   -2.617280|   -2.825940|    0.257686|
|         241|  9.6565e-01|   -6.723571|   -2.617280|   -2.825913|    0.256677|
|         242|  9.6300e-01|   -6.723993|   -2.617285|   -2.825898|    0.256169|
|         243|  9.6041e-01|   -6.724199|   -2.617288|   -2.825891|    0.255926|
|         244|  9.5779e-01|   -6.724351|   -2.617291|   -2.825884|    0.255747|
|         245|  9.5520e-01|   -6.724524|   -2.617294|   -2.825879|    0.255543|
|         246|  9.5265e-01|   -6.724980|   -2.617298|   -2.825881|    0.255013|
|         247|  9.5010e-01|   -6.725558|   -2.617303|   -2.825887|    0.254341|
|         248|  9.4757e-01|   -6.726065|   -2.617308|   -2.825891|    0.253751|
|         249|  9.4509e-01|   -6.726415|   -2.617310|   -2.825890|    0.253341|
|         250|  9.4260e-01|   -6.726610|   -2.617312|   -2.825884|    0.253112|
+-----------------------------------------------------------------------+
|        File Writing Summary       |              Filename             |
+-----------------------------------------------------------------------+
|SU2 binary restart                 |restart_flow.dat                   |
|Paraview                           |flow.vtu                           |
|CSV file                           |surface_flow.csv                   |
+-----------------------------------------------------------------------+
+-----------------------------------------------------------------------------+
|  Inner_Iter|   Time(sec)|    rms[Rho]|   rms[RhoU]|   rms[RhoV]|   rms[RhoE]|
+-----------------------------------------------------------------------------+
|         251|  9.4098e-01|   -6.726678|   -2.617311|   -2.825875|    0.253030|
|         252|  9.3859e-01|   -6.726642|   -2.617310|   -2.825863|    0.253068|
|         253|  9.3616e-01|   -6.726526|   -2.617308|   -2.825850|    0.253198|
|         254|  9.3375e-01|   -6.726365|   -2.617306|   -2.825836|    0.253382|
|         255|  9.3136e-01|   -6.726195|   -2.617304|   -2.825822|    0.253575|
|         256|  9.2897e-01|   -6.726057|   -2.617302|   -2.825809|    0.253730|
|         257|  9.2660e-01|   -6.725985|   -2.617300|   -2.825799|    0.253808|
|         258|  9.2424e-01|   -6.726038|   -2.617299|   -2.825794|    0.253743|
|         259|  9.2193e-01|   -6.726229|   -2.617299|   -2.825794|    0.253517|
|         260|  9.1961e-01|   -6.726480|   -2.617300|   -2.825797|    0.253220|
|         261|  9.1731e-01|   -6.726758|   -2.617301|   -2.825801|    0.252892|
|         262|  9.1503e-01|   -6.727035|   -2.617302|   -2.825805|    0.252564|
|         263|  9.1277e-01|   -6.727301|   -2.617303|   -2.825808|    0.252249|
|         264|  9.1055e-01|   -6.727553|   -2.617304|   -2.825811|    0.251949|
|         265|  9.0834e-01|   -6.727802|   -2.617305|   -2.825813|    0.251655|
|         266|  9.0612e-01|   -6.728057|   -2.617306|   -2.825815|    0.251353|
|         267|  9.0394e-01|   -6.728298|   -2.617307|   -2.825816|    0.251066|
|         268|  9.0183e-01|   -6.728508|   -2.617307|   -2.825815|    0.250817|
|         269|  8.9967e-01|   -6.728686|   -2.617308|   -2.825813|    0.250605|
|         270|  8.9752e-01|   -6.728824|   -2.617309|   -2.825809|    0.250439|
|         271|  8.9539e-01|   -6.728902|   -2.617310|   -2.825804|    0.250343|
|         272|  8.9327e-01|   -6.728930|   -2.617310|   -2.825797|    0.250308|
|         273|  8.9119e-01|   -6.728929|   -2.617311|   -2.825791|    0.250305|
|         274|  8.8912e-01|   -6.728934|   -2.617311|   -2.825785|    0.250295|
|         275|  8.8706e-01|   -6.728981|   -2.617311|   -2.825781|    0.250237|
|         276|  8.8501e-01|   -6.729039|   -2.617311|   -2.825777|    0.250166|
|         277|  8.8298e-01|   -6.729099|   -2.617311|   -2.825773|    0.250093|
|         278|  8.8098e-01|   -6.729189|   -2.617311|   -2.825770|    0.249983|
|         279|  8.7897e-01|   -6.729332|   -2.617311|   -2.825769|    0.249811|
|         280|  8.7704e-01|   -6.729509|   -2.617311|   -2.825770|    0.249596|
|         281|  8.7509e-01|   -6.729705|   -2.617311|   -2.825772|    0.249359|
|         282|  8.7312e-01|   -6.729916|   -2.617311|   -2.825774|    0.249104|
|         283|  8.7121e-01|   -6.730128|   -2.617311|   -2.825777|    0.248848|
|         284|  8.6928e-01|   -6.730335|   -2.617311|   -2.825779|    0.248599|
|         285|  8.6736e-01|   -6.730536|   -2.617311|   -2.825781|    0.248357|
|         286|  8.6547e-01|   -6.730731|   -2.617312|   -2.825783|    0.248122|
|         287|  8.6362e-01|   -6.730924|   -2.617313|   -2.825785|    0.247890|
|         288|  8.6180e-01|   -6.731164|   -2.617314|   -2.825788|    0.247606|
|         289|  8.5994e-01|   -6.731449|   -2.617315|   -2.825792|    0.247269|
|         290|  8.5808e-01|   -6.731829|   -2.617318|   -2.825798|    0.246822|
|         291|  8.5623e-01|   -6.732291|   -2.617320|   -2.825805|    0.246278|
|         292|  8.5441e-01|   -6.732806|   -2.617323|   -2.825812|    0.245675|
|         293|  8.5264e-01|   -6.733333|   -2.617326|   -2.825818|    0.245056|
|         294|  8.5084e-01|   -6.733827|   -2.617328|   -2.825821|    0.244476|
|         295|  8.4906e-01|   -6.734449|   -2.617329|   -2.825826|    0.243747|
|         296|  8.4729e-01|   -6.734961|   -2.617327|   -2.825832|    0.243150|
|         297|  8.4551e-01|   -6.735512|   -2.617325|   -2.825830|    0.242467|
|         298|  8.4379e-01|   -6.736737|   -2.617328|   -2.825834|    0.240978|
|         299|  8.4204e-01|   -6.738457|   -2.617333|   -2.825851|    0.238914|
|         300|  8.4036e-01|   -6.739179|   -2.617330|   -2.825832|    0.238005|
|         301|  8.3863e-01|   -6.738700|   -2.617322|   -2.825767|    0.238465|
|         302|  8.3692e-01|   -6.736891|   -2.617282|   -2.825687|    0.240439|
|         303|  8.3524e-01|   -6.736491|   -2.617247|   -2.825635|    0.240771|
|         304|  8.3368e-01|   -6.737724|   -2.617237|   -2.825588|    0.239226|
|         305|  8.3213e-01|   -6.737107|   -2.617211|   -2.825461|    0.239910|
|         306|  8.3069e-01|   -6.737369|   -2.617194|   -2.825199|    0.239629|
|         307|  8.2919e-01|   -6.741016|   -2.617140|   -2.825173|    0.235175|
|         308|  8.2767e-01|   -6.741294|   -2.617043|   -2.825336|    0.234570|
|         309|  8.2615e-01|   -6.740204|   -2.616920|   -2.825212|    0.235656|
|         310|  8.2464e-01|   -6.741643|   -2.616831|   -2.824972|    0.233734|
|         311|  8.2315e-01|   -6.741065|   -2.616659|   -2.824784|    0.234303|
|         312|  8.2180e-01|   -6.727005|   -2.616387|   -2.824255|    0.250599|
|         313|  8.2045e-01|   -6.723841|   -2.616101|   -2.824009|    0.254347|
|         314|  8.1912e-01|   -6.709542|   -2.615711|   -2.823268|    0.270671|
|         315|  8.1778e-01|   -6.706780|   -2.615340|   -2.822844|    0.273778|
|         316|  8.1658e-01|   -6.703421|   -2.614792|   -2.822334|    0.277559|
|         317|  8.1549e-01|   -6.696699|   -2.614155|   -2.821586|    0.284662|
|         318|  8.1434e-01|   -6.688563|   -2.613393|   -2.820579|    0.293621|
|         319|  8.1334e-01|   -6.658842|   -2.612272|   -2.819084|    0.327235|
|         320|  8.1229e-01|   -6.646698|   -2.610999|   -2.817549|    0.340691|
|         321|  8.1139e-01|   -6.634071|   -2.609487|   -2.815740|    0.354384|
|         322|  8.1051e-01|   -6.608067|   -2.607772|   -2.813309|    0.383064|
|         323|  8.0975e-01|   -6.606913|   -2.605717|   -2.810928|    0.385113|
|         324|  8.0919e-01|   -6.569151|   -2.603084|   -2.806900|    0.426407|
|         325|  8.0869e-01|   -6.559787|   -2.600114|   -2.803958|    0.436129|
|         326|  8.0839e-01|   -6.551326|   -2.596272|   -2.799958|    0.445606|
|         327|  8.0824e-01|   -6.542350|   -2.591781|   -2.794945|    0.454538|
|         328|  8.0818e-01|   -6.519786|   -2.586591|   -2.788966|    0.478600|
|         329|  8.0840e-01|   -6.490044|   -2.580304|   -2.781569|    0.509546|
|         330|  8.0874e-01|   -6.446807|   -2.573495|   -2.773315|    0.554373|
|         331|  8.0939e-01|   -6.429693|   -2.566265|   -2.764548|    0.571937|
|         332|  8.1020e-01|   -6.391906|   -2.558454|   -2.754528|    0.610442|
|         333|  8.1100e-01|   -6.371415|   -2.551484|   -2.744639|    0.631321|
|         334|  8.1182e-01|   -6.368615|   -2.546745|   -2.738245|    0.633183|
|         335|  8.1260e-01|   -6.356757|   -2.543217|   -2.732439|    0.644795|
|         336|  8.1336e-01|   -6.365567|   -2.539442|   -2.729202|    0.635109|
|         337|  8.1411e-01|   -6.367232|   -2.536436|   -2.724862|    0.632715|
|         338|  8.1484e-01|   -6.358013|   -2.534064|   -2.719327|    0.642451|
|         339|  8.1559e-01|   -6.354572|   -2.532368|   -2.715628|    0.646483|
|         340|  8.1649e-01|   -6.354462|   -2.530183|   -2.712755|    0.645970|
|         341|  8.1723e-01|   -6.354305|   -2.529157|   -2.710432|    0.646537|
|         342|  8.1799e-01|   -6.356625|   -2.527293|   -2.708126|    0.644099|
|         343|  8.1875e-01|   -6.358598|   -2.526829|   -2.706395|    0.643112|
|         344|  8.1954e-01|   -6.344751|   -2.525565|   -2.704791|    0.658261|
|         345|  8.2029e-01|   -6.342044|   -2.523573|   -2.704889|    0.662547|
|         346|  8.2110e-01|   -6.346731|   -2.522617|   -2.703834|    0.659001|
|         347|  8.2184e-01|   -6.341548|   -2.521252|   -2.702722|    0.665235|
|         348|  8.2275e-01|   -6.339746|   -2.518955|   -2.702897|    0.668436|
|         349|  8.2364e-01|   -6.343046|   -2.516660|   -2.702842|    0.666629|
|         350|  8.2462e-01|   -6.334018|   -2.513861|   -2.702446|    0.676437|
|         351|  8.2573e-01|   -6.337037|   -2.511798|   -2.701303|    0.674177|
|         352|  8.2673e-01|   -6.324707|   -2.508700|   -2.699950|    0.686825|
|         353|  8.2766e-01|   -6.318232|   -2.505037|   -2.698459|    0.693609|
|         354|  8.2859e-01|   -6.307409|   -2.501781|   -2.696332|    0.705217|
|         355|  8.2958e-01|   -6.314649|   -2.496996|   -2.696424|    0.698206|
|         356|  8.3044e-01|   -6.307008|   -2.494006|   -2.694789|    0.705700|
|         357|  8.3142e-01|   -6.308407|   -2.490703|   -2.694222|    0.704163|
|         358|  8.3226e-01|   -6.305172|   -2.488112|   -2.692016|    0.707312|
|         359|  8.3312e-01|   -6.306575|   -2.486302|   -2.692146|    0.705798|
|         360|  8.3398e-01|   -6.304738|   -2.486166|   -2.691092|    0.706963|
|         361|  8.3490e-01|   -6.311335|   -2.486159|   -2.690813|    0.699384|
|         362|  8.3580e-01|   -6.314751|   -2.486357|   -2.690278|    0.695523|
|         363|  8.3659e-01|   -6.312210|   -2.486721|   -2.688327|    0.697538|
|         364|  8.3659e-01|   -6.318825|   -2.487906|   -2.686219|    0.690696|
|         365|  8.3596e-01|   -6.407380|   -2.491915|   -2.693270|    0.600089|
|         366|  8.3502e-01|   -6.493347|   -2.494787|   -2.697288|    0.510354|
|         367|  8.3403e-01|   -6.547225|   -2.496625|   -2.699024|    0.453237|
|         368|  8.3293e-01|   -6.578868|   -2.497541|   -2.699574|    0.419007|
|         369|  8.3165e-01|   -6.600345|   -2.498014|   -2.699883|    0.395553|
|         370|  8.3041e-01|   -6.610897|   -2.498264|   -2.699986|    0.383968|
|         371|  8.2904e-01|   -6.615503|   -2.498380|   -2.700065|    0.378947|
|         372|  8.2767e-01|   -6.616373|   -2.498425|   -2.700071|    0.377990|
|         373|  8.2630e-01|   -6.617108|   -2.498450|   -2.700082|    0.377191|
|         374|  8.2494e-01|   -6.617544|   -2.498464|   -2.700088|    0.376714|
|         375|  8.2360e-01|   -6.618139|   -2.498480|   -2.700097|    0.376062|
|         376|  8.2227e-01|   -6.619035|   -2.498502|   -2.700113|    0.375083|
|         377|  8.2097e-01|   -6.620682|   -2.498532|   -2.700148|    0.373251|
|         378|  8.1965e-01|   -6.621639|   -2.498560|   -2.700160|    0.372170|
|         379|  8.1833e-01|   -6.622066|   -2.498590|   -2.700150|    0.371681|
|         380|  8.1702e-01|   -6.622848|   -2.498625|   -2.700137|    0.370809|
|         381|  8.1573e-01|   -6.623800|   -2.498667|   -2.700136|    0.369748|
|         382|  8.1443e-01|   -6.625133|   -2.498709|   -2.700144|    0.368299|
|         383|  8.1316e-01|   -6.625430|   -2.498744|   -2.700102|    0.367999|
|         384|  8.1199e-01|   -6.627844|   -2.498799|   -2.700115|    0.365388|
|         385|  8.1086e-01|   -6.631031|   -2.498874|   -2.700155|    0.361890|
|         386|  8.0971e-01|   -6.634486|   -2.498951|   -2.700169|    0.358050|
|         387|  8.0856e-01|   -6.635865|   -2.499013|   -2.700148|    0.356511|
|         388|  8.0746e-01|   -6.634660|   -2.499067|   -2.700075|    0.357897|
|         389|  8.0633e-01|   -6.635285|   -2.499120|   -2.700036|    0.357251|
|         390|  8.0510e-01|   -6.639957|   -2.499158|   -2.700135|    0.352046|
|         391|  8.0391e-01|   -6.640782|   -2.499170|   -2.700152|    0.351102|
|         392|  8.0272e-01|   -6.641022|   -2.499175|   -2.700156|    0.350814|
|         393|  8.0149e-01|   -6.641314|   -2.499179|   -2.700160|    0.350481|
|         394|  8.0032e-01|   -6.641462|   -2.499181|   -2.700161|    0.350312|
|         395|  7.9912e-01|   -6.641563|   -2.499182|   -2.700163|    0.350196|
|         396|  7.9790e-01|   -6.641661|   -2.499183|   -2.700164|    0.350084|
|         397|  7.9672e-01|   -6.641756|   -2.499184|   -2.700165|    0.349975|
|         398|  7.9553e-01|   -6.641849|   -2.499185|   -2.700166|    0.349867|
|         399|  7.9433e-01|   -6.641941|   -2.499186|   -2.700167|    0.349761|
|         400|  7.9315e-01|   -6.642033|   -2.499187|   -2.700169|    0.349655|
|         401|  7.9198e-01|   -6.642126|   -2.499188|   -2.700170|    0.349547|
|         402|  7.9080e-01|   -6.642222|   -2.499188|   -2.700171|    0.349436|
|         403|  7.8965e-01|   -6.642321|   -2.499189|   -2.700172|    0.349322|
|         404|  7.8852e-01|   -6.642424|   -2.499190|   -2.700174|    0.349204|
|         405|  7.8737e-01|   -6.642554|   -2.499190|   -2.700176|    0.349054|
|         406|  7.8621e-01|   -6.642720|   -2.499191|   -2.700178|    0.348864|
|         407|  7.8507e-01|   -6.642936|   -2.499193|   -2.700182|    0.348617|
|         408|  7.8393e-01|   -6.643222|   -2.499194|   -2.700187|    0.348293|
|         409|  7.8282e-01|   -6.643597|   -2.499196|   -2.700194|    0.347868|
|         410|  7.8171e-01|   -6.644099|   -2.499199|   -2.700203|    0.347302|
|         411|  7.8059e-01|   -6.644793|   -2.499201|   -2.700220|    0.346531|
|         412|  7.7948e-01|   -6.645479|   -2.499204|   -2.700239|    0.345772|
|         413|  7.7836e-01|   -6.646239|   -2.499209|   -2.700270|    0.344932|
|         414|  7.7727e-01|   -6.646679|   -2.499215|   -2.700290|    0.344439|
|         415|  7.7617e-01|   -6.646967|   -2.499223|   -2.700303|    0.344111|
|         416|  7.7508e-01|   -6.647254|   -2.499236|   -2.700312|    0.343772|
|         417|  7.7399e-01|   -6.647801|   -2.499250|   -2.700321|    0.343126|
|         418|  7.7291e-01|   -6.648241|   -2.499275|   -2.700342|    0.342576|
|         419|  7.7198e-01|   -6.649131|   -2.499298|   -2.700363|    0.341514|
|         420|  7.7101e-01|   -6.651223|   -2.499327|   -2.700381|    0.339120|
|         421|  7.7006e-01|   -6.652630|   -2.499356|   -2.700396|    0.337453|
|         422|  7.6914e-01|   -6.653646|   -2.499377|   -2.700396|    0.336184|
|         423|  7.6818e-01|   -6.653298|   -2.499407|   -2.700394|    0.336381|
|         424|  7.6724e-01|   -6.652877|   -2.499401|   -2.700390|    0.336596|
|         425|  7.6629e-01|   -6.651106|   -2.499427|   -2.700271|    0.338261|
|         426|  7.6535e-01|   -6.644180|   -2.499376|   -2.700047|    0.345386|
|         427|  7.6453e-01|   -6.641834|   -2.499311|   -2.699948|    0.347080|
|         428|  7.6371e-01|   -6.641393|   -2.499175|   -2.699910|    0.346475|
|         429|  7.6292e-01|   -6.634689|   -2.499072|   -2.699740|    0.352588|
|         430|  7.6211e-01|   -6.630888|   -2.498899|   -2.699548|    0.355196|
|         431|  7.6139e-01|   -6.616417|   -2.498628|   -2.698956|    0.369723|
|         432|  7.6074e-01|   -6.601037|   -2.498232|   -2.698525|    0.384609|
|         433|  7.6006e-01|   -6.601309|   -2.497844|   -2.697973|    0.381983|
|         434|  7.5949e-01|   -6.583594|   -2.497231|   -2.696841|    0.399901|
|         435|  7.5889e-01|   -6.569574|   -2.496614|   -2.695642|    0.413929|
|         436|  7.5841e-01|   -6.563396|   -2.495949|   -2.694125|    0.419618|
|         437|  7.5789e-01|   -6.552958|   -2.495263|   -2.692160|    0.431116|
|         438|  7.5756e-01|   -6.542403|   -2.494518|   -2.689358|    0.443122|
|         439|  7.5728e-01|   -6.525372|   -2.493748|   -2.686064|    0.463765|
|         440|  7.5707e-01|   -6.518747|   -2.492653|   -2.682760|    0.472920|
|         441|  7.5707e-01|   -6.501127|   -2.490397|   -2.678683|    0.493693|
|         442|  7.5712e-01|   -6.479557|   -2.487921|   -2.674057|    0.518371|
|         443|  7.5721e-01|   -6.465089|   -2.485405|   -2.668902|    0.534402|
[...]
|        2272|  5.9075e-01|   -7.200403|   -3.661435|   -3.849727|   -0.203098|
|        2273|  5.9064e-01|   -7.206056|   -3.661766|   -3.852235|   -0.209125|
|        2274|  5.9053e-01|   -7.213678|   -3.662168|   -3.855427|   -0.217241|
|        2275|  5.9041e-01|   -7.220781|   -3.662654|   -3.858185|   -0.224826|
|        2276|  5.9029e-01|   -7.224733|   -3.663188|   -3.859396|   -0.229076|
|        2277|  5.9017e-01|   -7.227400|   -3.663802|   -3.860439|   -0.231912|
|        2278|  5.9006e-01|   -7.231335|   -3.664419|   -3.862670|   -0.236101|
|        2279|  5.8994e-01|   -7.236161|   -3.665075|   -3.865682|   -0.241256|
|        2280|  5.8982e-01|   -7.241815|   -3.665842|   -3.869076|   -0.247586|
|        2281|  5.8970e-01|   -7.252454|   -3.666655|   -3.874453|   -0.259459|
|        2282|  5.8958e-01|   -7.268961|   -3.667470|   -3.882013|   -0.277528|
|        2283|  5.8947e-01|   -7.278922|   -3.668439|   -3.898401|   -0.288247|
|        2284|  5.8936e-01|   -7.246365|   -3.666565|   -3.897068|   -0.252029|
|        2285|  5.8926e-01|   -7.219417|   -3.665285|   -3.884593|   -0.222497|
|        2286|  5.8917e-01|   -7.192214|   -3.662826|   -3.871197|   -0.193511|
|        2287|  5.8907e-01|   -7.163649|   -3.659115|   -3.876691|   -0.164340|
|        2288|  5.8897e-01|   -7.121895|   -3.656004|   -3.840181|   -0.120125|
|        2289|  5.8888e-01|   -7.127782|   -3.649656|   -3.846497|   -0.125855|
|        2290|  5.8878e-01|   -7.125960|   -3.652962|   -3.837636|   -0.123734|
|        2291|  5.8868e-01|   -7.106656|   -3.651101|   -3.845563|   -0.104571|
|        2292|  5.8859e-01|   -7.087589|   -3.656455|   -3.832127|   -0.083374|
|        2293|  5.8850e-01|   -7.070474|   -3.650482|   -3.819800|   -0.065326|
|        2294|  5.8843e-01|   -7.013416|   -3.644585|   -3.795948|   -0.006615|
|        2295|  5.8835e-01|   -6.952388|   -3.629381|   -3.763894|    0.054990|
|        2296|  5.8827e-01|   -6.916561|   -3.626070|   -3.730977|    0.091289|
|        2297|  5.8821e-01|   -6.911872|   -3.630005|   -3.732196|    0.096618|
|        2298|  5.8814e-01|   -6.938370|   -3.620138|   -3.765831|    0.069181|
|        2299|  5.8809e-01|   -6.896363|   -3.612373|   -3.739852|    0.112776|
|        2300|  5.8804e-01|   -6.869276|   -3.611452|   -3.703561|    0.140156|
|        2301|  5.8800e-01|   -6.876390|   -3.594346|   -3.734798|    0.132872|
|        2302|  5.8797e-01|   -6.878673|   -3.604383|   -3.702958|    0.130729|
|        2303|  5.8795e-01|   -6.796648|   -3.582266|   -3.656005|    0.213175|
|        2304|  5.8794e-01|   -6.812501|   -3.588346|   -3.668893|    0.197432|
|        2305|  5.8795e-01|   -6.800017|   -3.591486|   -3.655547|    0.210374|
|        2306|  5.8798e-01|   -6.776024|   -3.576807|   -3.634679|    0.234208|
|        2307|  5.8802e-01|   -6.770862|   -3.571108|   -3.636616|    0.239604|
|        2308|  5.8810e-01|   -6.750991|   -3.574419|   -3.617369|    0.259415|
|        2309|  5.8821e-01|   -6.738616|   -3.554407|   -3.612515|    0.272035|
|        2310|  5.8833e-01|   -6.751046|   -3.555803|   -3.617474|    0.259668|
|        2311|  5.8848e-01|   -6.740711|   -3.551648|   -3.601123|    0.270287|
|        2312|  5.8862e-01|   -6.705117|   -3.541572|   -3.585179|    0.305726|
|        2313|  5.8879e-01|   -6.772647|   -3.554225|   -3.652826|    0.237695|
|        2314|  5.8895e-01|   -6.795852|   -3.558412|   -3.646085|    0.214060|
|        2315|  5.8909e-01|   -6.787280|   -3.557364|   -3.647937|    0.223265|
|        2316|  5.8923e-01|   -6.741291|   -3.553387|   -3.609154|    0.269332|
|        2317|  5.8937e-01|   -6.739931|   -3.549286|   -3.607449|    0.270492|
|        2318|  5.8952e-01|   -6.733387|   -3.552045|   -3.624050|    0.277216|
|        2319|  5.8966e-01|   -6.768067|   -3.558351|   -3.628985|    0.242205|
|        2320|  5.8981e-01|   -6.773056|   -3.568052|   -3.653853|    0.237231|
|        2321|  5.8996e-01|   -6.805253|   -3.561969|   -3.663332|    0.204942|
|        2322|  5.9010e-01|   -6.767622|   -3.561825|   -3.631778|    0.242703|
|        2323|  5.9025e-01|   -6.762428|   -3.552458|   -3.630488|    0.248232|
|        2324|  5.9039e-01|   -6.730458|   -3.562120|   -3.595201|    0.280184|
|        2325|  5.9053e-01|   -6.707475|   -3.563185|   -3.586586|    0.303427|
|        2326|  5.9068e-01|   -6.714775|   -3.571418|   -3.599838|    0.296739|
|        2327|  5.9082e-01|   -6.734681|   -3.557596|   -3.604438|    0.276276|
|        2328|  5.9096e-01|   -6.728634|   -3.559227|   -3.593148|    0.282656|
|        2329|  5.9110e-01|   -6.730014|   -3.580668|   -3.601168|    0.281216|
|        2330|  5.9124e-01|   -6.720980|   -3.576979|   -3.594001|    0.290145|
|        2331|  5.9138e-01|   -6.738056|   -3.578359|   -3.605879|    0.273344|
|        2332|  5.9153e-01|   -6.727873|   -3.592772|   -3.607000|    0.283450|
|        2333|  5.9167e-01|   -6.697753|   -3.560403|   -3.578668|    0.313668|
|        2334|  5.9181e-01|   -6.725247|   -3.582523|   -3.601191|    0.285246|
|        2335|  5.9195e-01|   -6.755402|   -3.599691|   -3.637273|    0.255730|
|        2336|  5.9209e-01|   -6.768391|   -3.604448|   -3.640969|    0.242579|
|        2337|  5.9223e-01|   -6.767938|   -3.596270|   -3.631984|    0.242988|
|        2338|  5.9228e-01|   -6.735777|   -3.587768|   -3.615047|    0.275154|
|        2339|  5.9224e-01|   -6.764720|   -3.610866|   -3.647918|    0.246415|
|        2340|  5.9220e-01|   -6.823227|   -3.615303|   -3.695917|    0.187255|
|        2341|  5.9212e-01|   -6.885680|   -3.650829|   -3.745879|    0.124533|
|        2342|  5.9202e-01|   -6.954228|   -3.668334|   -3.776976|    0.054636|
|        2343|  5.9192e-01|   -7.025566|   -3.684798|   -3.801885|   -0.017973|
|        2344|  5.9180e-01|   -7.093349|   -3.699041|   -3.853716|   -0.089043|
|        2345|  5.9168e-01|   -7.111036|   -3.702553|   -3.856708|   -0.107138|
|        2346|  5.9156e-01|   -7.134369|   -3.705794|   -3.868185|   -0.131470|
|        2347|  5.9145e-01|   -7.155962|   -3.707848|   -3.880379|   -0.153977|
|        2348|  5.9133e-01|   -7.166395|   -3.708920|   -3.887152|   -0.164891|
|        2349|  5.9121e-01|   -7.170357|   -3.709329|   -3.889770|   -0.169037|
|        2350|  5.9110e-01|   -7.172674|   -3.709575|   -3.891307|   -0.171459|
|        2351|  5.9098e-01|   -7.174787|   -3.709807|   -3.892735|   -0.173666|
|        2352|  5.9087e-01|   -7.176675|   -3.710035|   -3.894085|   -0.175631|
|        2353|  5.9075e-01|   -7.178262|   -3.710257|   -3.895362|   -0.177271|
|        2354|  5.9063e-01|   -7.179564|   -3.710473|   -3.896552|   -0.178608|
|        2355|  5.9052e-01|   -7.180624|   -3.710706|   -3.897639|   -0.179685|
|        2356|  5.9040e-01|   -7.181478|   -3.710955|   -3.898612|   -0.180546|
|        2357|  5.9028e-01|   -7.182171|   -3.711214|   -3.899467|   -0.181238|
|        2358|  5.9017e-01|   -7.182743|   -3.711474|   -3.900205|   -0.181805|
|        2359|  5.9005e-01|   -7.183255|   -3.711728|   -3.900823|   -0.182283|
|        2360|  5.8994e-01|   -7.183708|   -3.711966|   -3.901323|   -0.182682|
|        2361|  5.8982e-01|   -7.184093|   -3.712178|   -3.901717|   -0.183006|
|        2362|  5.8971e-01|   -7.184586|   -3.712366|   -3.902034|   -0.183439|
|        2363|  5.8959e-01|   -7.185322|   -3.712534|   -3.902284|   -0.184120|
|        2364|  5.8948e-01|   -7.186139|   -3.712665|   -3.902425|   -0.184882|
|        2365|  5.8936e-01|   -7.186969|   -3.712751|   -3.902386|   -0.185637|
|        2366|  5.8925e-01|   -7.187510|   -3.712730|   -3.902019|   -0.186066|
|        2367|  5.8914e-01|   -7.187350|   -3.712515|   -3.901163|   -0.185735|
|        2368|  5.8903e-01|   -7.186078|   -3.712003|   -3.899692|   -0.184220|
|        2369|  5.8891e-01|   -7.185084|   -3.711657|   -3.898864|   -0.183098|
|        2370|  5.8880e-01|   -7.183882|   -3.711259|   -3.897991|   -0.181771|
|        2371|  5.8868e-01|   -7.182433|   -3.710792|   -3.897041|   -0.180196|
|        2372|  5.8857e-01|   -7.180719|   -3.710250|   -3.896004|   -0.178353|
|        2373|  5.8846e-01|   -7.178741|   -3.709631|   -3.894878|   -0.176239|
|        2374|  5.8834e-01|   -7.176552|   -3.708949|   -3.893674|   -0.173913|
|        2375|  5.8823e-01|   -7.174275|   -3.708237|   -3.892431|   -0.171502|
|        2376|  5.8811e-01|   -7.172125|   -3.707562|   -3.891228|   -0.169231|
|        2377|  5.8800e-01|   -7.170397|   -3.707023|   -3.890177|   -0.167408|
|        2378|  5.8788e-01|   -7.169374|   -3.706717|   -3.889373|   -0.166324|
|        2379|  5.8778e-01|   -7.168727|   -3.706531|   -3.888699|   -0.165638|
|        2380|  5.8766e-01|   -7.168393|   -3.706427|   -3.888143|   -0.165266|
|        2381|  5.8755e-01|   -7.168354|   -3.706400|   -3.887720|   -0.165207|
|        2382|  5.8743e-01|   -7.168612|   -3.706449|   -3.887438|   -0.165462|
|        2383|  5.8732e-01|   -7.168995|   -3.706528|   -3.887222|   -0.165850|
|        2384|  5.8721e-01|   -7.169426|   -3.706620|   -3.887038|   -0.166294|
|        2385|  5.8710e-01|   -7.169901|   -3.706722|   -3.886886|   -0.166791|
|        2386|  5.8699e-01|   -7.170538|   -3.706828|   -3.886834|   -0.167462|
|        2387|  5.8687e-01|   -7.171230|   -3.706942|   -3.886825|   -0.168198|
|        2388|  5.8676e-01|   -7.171958|   -3.707066|   -3.886846|   -0.168975|
|        2389|  5.8665e-01|   -7.172724|   -3.707199|   -3.886896|   -0.169791|
|        2390|  5.8653e-01|   -7.173714|   -3.707375|   -3.886991|   -0.170829|
|        2391|  5.8642e-01|   -7.175049|   -3.707641|   -3.887195|   -0.172226|
|        2392|  5.8631e-01|   -7.176884|   -3.708039|   -3.887596|   -0.174141|
|        2393|  5.8620e-01|   -7.179328|   -3.708609|   -3.888241|   -0.176684|
|        2394|  5.8608e-01|   -7.182431|   -3.709386|   -3.889140|   -0.179908|
|        2395|  5.8598e-01|   -7.186347|   -3.710384|   -3.890306|   -0.183980|
|        2396|  5.8587e-01|   -7.191320|   -3.711511|   -3.891974|   -0.189180|
|        2397|  5.8575e-01|   -7.195279|   -3.712509|   -3.893296|   -0.193321|
|        2398|  5.8564e-01|   -7.198950|   -3.713080|   -3.895292|   -0.197195|
|        2399|  5.8553e-01|   -7.208621|   -3.713283|   -3.903301|   -0.207542|
|        2400|  5.8542e-01|   -7.216467|   -3.712248|   -3.915080|   -0.216189|
|        2401|  5.8531e-01|   -7.222495|   -3.712106|   -3.919726|   -0.222691|
|        2402|  5.8519e-01|   -7.221815|   -3.711412|   -3.919195|   -0.222064|
|        2403|  5.8508e-01|   -7.232520|   -3.712839|   -3.922268|   -0.232863|
|        2404|  5.8497e-01|   -7.231576|   -3.710274|   -3.925235|   -0.231868|
|        2405|  5.8486e-01|   -7.263851|   -3.708085|   -3.935817|   -0.266335|
|        2406|  5.8477e-01|   -7.272883|   -3.713192|   -3.939924|   -0.275349|
|        2407|  5.8467e-01|   -7.273077|   -3.719690|   -3.937940|   -0.275141|
|        2408|  5.8458e-01|   -7.293842|   -3.722145|   -3.941652|   -0.297905|
|        2409|  5.8448e-01|   -7.256911|   -3.720999|   -3.944056|   -0.257748|
|        2410|  5.8439e-01|   -7.246219|   -3.725095|   -3.927189|   -0.247004|
|        2411|  5.8429e-01|   -7.156571|   -3.719340|   -3.896131|   -0.152109|
|        2412|  5.8420e-01|   -7.120353|   -3.717649|   -3.879151|   -0.116347|
|        2413|  5.8411e-01|   -7.020400|   -3.708398|   -3.817498|   -0.013120|
|        2414|  5.8404e-01|   -7.004987|   -3.709365|   -3.789813|    0.002855|
|        2415|  5.8396e-01|   -6.998893|   -3.685342|   -3.786645|    0.009413|
|        2416|  5.8388e-01|   -6.941903|   -3.662542|   -3.760054|    0.067538|
|        2417|  5.8380e-01|   -6.931953|   -3.668022|   -3.751452|    0.077655|
|        2418|  5.8374e-01|   -6.914078|   -3.649796|   -3.742945|    0.095190|
|        2419|  5.8368e-01|   -6.874932|   -3.655930|   -3.710912|    0.135431|
|        2420|  5.8362e-01|   -6.889547|   -3.654660|   -3.744471|    0.120120|
|        2421|  5.8358e-01|   -6.901663|   -3.654677|   -3.753519|    0.107689|
|        2422|  5.8353e-01|   -6.880595|   -3.653400|   -3.737756|    0.129568|
|        2423|  5.8350e-01|   -6.856728|   -3.668266|   -3.725493|    0.153842|
|        2424|  5.8348e-01|   -6.800649|   -3.631075|   -3.679825|    0.209847|
|        2425|  5.8349e-01|   -6.808744|   -3.629651|   -3.688728|    0.201830|
|        2426|  5.8349e-01|   -6.842808|   -3.653315|   -3.691544|    0.167378|
|        2427|  5.8352e-01|   -6.808315|   -3.627741|   -3.691676|    0.202394|
|        2428|  5.8357e-01|   -6.861802|   -3.627235|   -3.717055|    0.147948|
|        2429|  5.8363e-01|   -6.797028|   -3.625470|   -3.653774|    0.213664|
|        2430|  5.8372e-01|   -6.770802|   -3.620618|   -3.628085|    0.240409|
|        2431|  5.8383e-01|   -6.772640|   -3.605036|   -3.654752|    0.238339|
|        2432|  5.8397e-01|   -6.742246|   -3.600367|   -3.612842|    0.268854|
|        2433|  5.8414e-01|   -6.747630|   -3.599221|   -3.613267|    0.263333|
|        2434|  5.8428e-01|   -6.775597|   -3.610437|   -3.636803|    0.235405|
|        2435|  5.8444e-01|   -6.763391|   -3.599445|   -3.639902|    0.247590|
|        2436|  5.8459e-01|   -6.783015|   -3.605590|   -3.653680|    0.227894|
|        2437|  5.8474e-01|   -6.762000|   -3.609237|   -3.630162|    0.249356|
|        2438|  5.8488e-01|   -6.760945|   -3.628994|   -3.638395|    0.250106|
|        2439|  5.8502e-01|   -6.755708|   -3.616451|   -3.619981|    0.255272|
|        2440|  5.8517e-01|   -6.776256|   -3.619148|   -3.661962|    0.234735|
|        2441|  5.8531e-01|   -6.756793|   -3.605244|   -3.611868|    0.254704|
|        2442|  5.8545e-01|   -6.756534|   -3.605529|   -3.639816|    0.254935|
|        2443|  5.8559e-01|   -6.749468|   -3.615027|   -3.606859|    0.261543|
|        2444|  5.8563e-01|   -6.728515|   -3.595859|   -3.613012|    0.282784|
|        2445|  5.8560e-01|   -6.763577|   -3.607673|   -3.633690|    0.247731|
|        2446|  5.8554e-01|   -6.770597|   -3.633972|   -3.656831|    0.240320|
|        2447|  5.8547e-01|   -6.862357|   -3.650117|   -3.728503|    0.148010|
|        2448|  5.8538e-01|   -6.911250|   -3.659690|   -3.746199|    0.098953|
|        2449|  5.8528e-01|   -6.981847|   -3.700124|   -3.772017|    0.026748|
|        2450|  5.8517e-01|   -7.028394|   -3.695358|   -3.793831|   -0.021107|
|        2451|  5.8507e-01|   -7.075927|   -3.706065|   -3.821716|   -0.069641|
|        2452|  5.8496e-01|   -7.101120|   -3.709786|   -3.838052|   -0.095875|
|        2453|  5.8485e-01|   -7.107253|   -3.707303|   -3.844876|   -0.102316|
|        2454|  5.8475e-01|   -7.108005|   -3.705609|   -3.846175|   -0.103052|
|        2455|  5.8464e-01|   -7.108704|   -3.704899|   -3.846932|   -0.103752|
|        2456|  5.8453e-01|   -7.109341|   -3.704479|   -3.847548|   -0.104397|
|        2457|  5.8443e-01|   -7.109751|   -3.704030|   -3.848048|   -0.104806|
|        2458|  5.8432e-01|   -7.109893|   -3.703531|   -3.848401|   -0.104939|
|        2459|  5.8421e-01|   -7.109644|   -3.702953|   -3.848536|   -0.104670|
|        2460|  5.8411e-01|   -7.108804|   -3.702266|   -3.848323|   -0.103796|
|        2461|  5.8400e-01|   -7.107215|   -3.701431|   -3.847651|   -0.102154|
|        2462|  5.8389e-01|   -7.104738|   -3.700415|   -3.846407|   -0.099603|
|        2463|  5.8379e-01|   -7.101431|   -3.699232|   -3.844581|   -0.096203|
|        2464|  5.8368e-01|   -7.098074|   -3.698020|   -3.842538|   -0.092757|
|        2465|  5.8357e-01|   -7.096090|   -3.697093|   -3.841113|   -0.090723|
|        2466|  5.8347e-01|   -7.096759|   -3.696811|   -3.841172|   -0.091417|
|        2467|  5.8336e-01|   -7.098205|   -3.696787|   -3.841665|   -0.092917|
|        2468|  5.8326e-01|   -7.099044|   -3.696748|   -3.841812|   -0.093811|
|        2469|  5.8315e-01|   -7.099595|   -3.696703|   -3.841861|   -0.094413|
|        2470|  5.8304e-01|   -7.100966|   -3.696696|   -3.842402|   -0.095824|
|        2471|  5.8293e-01|   -7.102267|   -3.696695|   -3.842895|   -0.097160|
|        2472|  5.8283e-01|   -7.103509|   -3.696701|   -3.843344|   -0.098437|
|        2473|  5.8272e-01|   -7.104766|   -3.696718|   -3.843791|   -0.099726|
|        2474|  5.8261e-01|   -7.107000|   -3.696790|   -3.844759|   -0.101982|
|        2475|  5.8250e-01|   -7.109081|   -3.696874|   -3.845622|   -0.104089|
|        2476|  5.8240e-01|   -7.110793|   -3.696965|   -3.846207|   -0.105834|
|        2477|  5.8229e-01|   -7.112339|   -3.697073|   -3.846627|   -0.107417|
|        2478|  5.8218e-01|   -7.113897|   -3.697251|   -3.847028|   -0.109016|
|        2479|  5.8208e-01|   -7.115504|   -3.697502|   -3.847453|   -0.110662|
|        2480|  5.8197e-01|   -7.117097|   -3.697802|   -3.847870|   -0.112293|
|        2481|  5.8186e-01|   -7.118602|   -3.698121|   -3.848235|   -0.113831|
|        2482|  5.8175e-01|   -7.119956|   -3.698437|   -3.848517|   -0.115212|
|        2483|  5.8165e-01|   -7.121134|   -3.698739|   -3.848700|   -0.116413|
|        2484|  5.8155e-01|   -7.122140|   -3.699019|   -3.848790|   -0.117436|
|        2485|  5.8144e-01|   -7.122989|   -3.699277|   -3.848802|   -0.118297|
|        2486|  5.8133e-01|   -7.123700|   -3.699516|   -3.848749|   -0.119014|
|        2487|  5.8123e-01|   -7.124293|   -3.699737|   -3.848646|   -0.119611|
|        2488|  5.8113e-01|   -7.124826|   -3.699938|   -3.848530|   -0.120145|
|        2489|  5.8102e-01|   -7.125320|   -3.700117|   -3.848417|   -0.120640|
|        2490|  5.8092e-01|   -7.125777|   -3.700281|   -3.848311|   -0.121096|
|        2491|  5.8082e-01|   -7.126215|   -3.700436|   -3.848225|   -0.121531|
|        2492|  5.8072e-01|   -7.126675|   -3.700593|   -3.848180|   -0.121989|
|        2493|  5.8061e-01|   -7.127241|   -3.700766|   -3.848222|   -0.122555|
|        2494|  5.8051e-01|   -7.127971|   -3.700965|   -3.848373|   -0.123289|
|        2495|  5.8040e-01|   -7.128879|   -3.701188|   -3.848641|   -0.124210|
|        2496|  5.8030e-01|   -7.129877|   -3.701412|   -3.848977|   -0.125225|
|        2497|  5.8020e-01|   -7.130902|   -3.701639|   -3.849325|   -0.126268|
|        2498|  5.8009e-01|   -7.131956|   -3.701867|   -3.849681|   -0.127341|
|        2499|  5.7999e-01|   -7.133013|   -3.702111|   -3.850032|   -0.128417|

----------------------------- Solver Exit -------------------------------

Maximum number of iterations reached (ITER = 2500) before convergence.
+-----------------------------------------------------------------------+
|      Convergence Field     |     Value    |   Criterion  |  Converged |
+-----------------------------------------------------------------------+
|                    rms[Rho]|      -7.13301|          < -8|          No|
+-----------------------------------------------------------------------+
-------------------------------------------------------------------------
+-----------------------------------------------------------------------+
|        File Writing Summary       |              Filename             |
+-----------------------------------------------------------------------+
|SU2 binary restart                 |restart_flow.dat                   |
|Paraview                           |flow.vtu                           |
|CSV file                           |surface_flow.csv                   |
+-----------------------------------------------------------------------+

--------------------------- Finalizing Solver ---------------------------
Deleted CNumerics container.
Deleted CIntegration container.
Deleted CSolver container.
Deleted CIteration container.
Deleted CInterface container.
Deleted CGeometry container.
Deleted CFreeFormDefBox class.
Deleted CSurfaceMovement class.
Deleted CVolumetricMovement class.
Deleted CConfig container.
Deleted nInst container.
Deleted COutput class.
-------------------------------------------------------------------------

------------------------- Exit Success (SU2_CFD) ------------------------


Total elapsed: 0:24:12
