
-------------------------------------------------------------------------
|    ___ _   _ ___                                                      |
|   / __| | | |_  )   Release 8.3.0 "Harrier"                           |
|   \__ \ |_| |/ /                                                      |
|   |___/\___//___|   Suite (Computational Fluid Dynamics Code)         |
|                                                                       |
-------------------------------------------------------------------------
| SU2 Project Website: https://su2code.github.io                        |
|                                                                       |
| The SU2 Project is maintained by the SU2 Foundation                   |
| (http://su2foundation.org)                                            |
-------------------------------------------------------------------------
| Copyright 2012-2025, SU2 Contributors                                 |
|                                                                       |
| SU2 is free software; you can redistribute it and/or                  |
| modify it under the terms of the GNU Lesser General Public            |
| License as published by the Free Software Foundation; either          |
| version 2.1 of the License, or (at your option) any later version.    |
|                                                                       |
| SU2 is distributed in the hope that it will be useful,                |
| but WITHOUT ANY WARRANTY; without even the implied warranty of        |
| MERCHANTABILITY or FITNESS FOR A PARTICULAR PURPOSE. See the GNU      |
| Lesser General Public License for more details.                       |
|                                                                       |
| You should have received a copy of the GNU Lesser General Public      |
| License along with SU2. If not, see <http://www.gnu.org/licenses/>.   |
-------------------------------------------------------------------------

Parsing config file for zone 0

----------------- Physical Case Definition ( Zone 0 ) -------------------
Compressible Laminar Navier-Stokes' equations.
Mach number: 0.3.
Angle of attack (AoA): 0 deg, and angle of sideslip (AoS): 0 deg.
Reynolds number: 89810. Reference length 0.166667.
No restart solution, use the values at infinity (freestream).
Dimensional simulation.
The reference area is 0.0833333 ft^2.
The semi-span will be computed using the max y(3D) value.
The reference length is 0.166667 ft.
Reference origin for moment evaluation is (0, 0, 0).
Surface(s) where the force coefficients are evaluated: Airfoils, Outlet.

Surface(s) plotted in the output file: Airfoils, Outlet.
Input mesh file name: testMesh.su2

--------------- Space Numerical Integration ( Zone 0 ) ------------------
Roe (with entropy fix = 0.05) solver for the flow inviscid terms.
Standard Roe without low-dissipation function.
Second order integration in space, with slope limiter.
Venkatakrishnan slope-limiting method, with constant: 0.02.
The reference element size is: 3.28084. 
Average of gradients with correction (viscous flow terms).
Gradient for upwind reconstruction: inverse-distance weighted Least-Squares.
Gradient for viscous and source terms: inverse-distance weighted Least-Squares.

--------------- Time Numerical Integration  ( Zone 0 ) ------------------
Local time stepping (steady state simulation).
Euler implicit method for the flow equations.
FGMRES is used for solving the linear system.
Using a ILU(0) preconditioning.
Convergence criteria of the linear solver: 1e-06.
Max number of linear iterations: 120.
CFL adaptation. Factor down: 0.5, factor up: 1.2,
                lower limit: 0.01, upper limit: 30,
                acceptable linear residual: 0.001'
                starting iteration: 0.
Courant-Friedrichs-Lewy number:      0.5

------------------ Convergence Criteria  ( Zone 0 ) ---------------------
Maximum number of solver subiterations: 5000.
Begin convergence monitoring at iteration 20.
Residual minimum value: 1e-8.
Cauchy series min. value: 1e-06.
Number of Cauchy elements: 100.
Begin windowed time average at iteration 0.

-------------------- Output Information ( Zone 0 ) ----------------------
File writing frequency: 
+------------------------------------+
|                     File| Frequency|
+------------------------------------+
|                  RESTART|       250|
|                 PARAVIEW|       250|
|              SURFACE_CSV|       250|
|                      CSV|       250|
|         SURFACE_PARAVIEW|       250|
+------------------------------------+
Writing the convergence history file every 1 inner iterations.
Writing the screen convergence history every 1 inner iterations.
The tabular file format is CSV (.csv).
Convergence history file name: history.
Forces breakdown file name: forces_breakdown.dat.
Surface file name: surface_flow_markers.
Volume file name: flow.
Restart file name: entire_surface_data.

------------- Config File Boundary Information ( Zone 0 ) ---------------
+-----------------------------------------------------------------------+
|                        Marker Type|                        Marker Name|
+-----------------------------------------------------------------------+
|                  Periodic boundary|                          Symmetry2|
|                                   |                          Symmetry1|
+-----------------------------------------------------------------------+
|                     Inlet boundary|                              Inlet|
+-----------------------------------------------------------------------+
|                    Outlet boundary|                             Outlet|
+-----------------------------------------------------------------------+
|                     Heat flux wall|                           Airfoils|
+-----------------------------------------------------------------------+

-------------------- Output Preprocessing ( Zone 0 ) --------------------

WARNING: SURFACE_PRESSURE_DROP can only be computed for at least 2 surfaces (outlet, inlet, ...)

Screen output fields: INNER_ITER, WALL_TIME, RMS_DENSITY, RMS_MOMENTUM-X, RMS_MOMENTUM-Y, RMS_ENERGY
History output group(s): ITER, RMS_RES
Convergence field(s): RMS_DENSITY
Warning: No (valid) fields chosen for time convergence monitoring. Time convergence monitoring inactive.
  Info: Ignoring the following volume output fields/groups:
  CUSTOM
Volume output fields: COORDINATES, SOLUTION, PRIMITIVE

------------------- Geometry Preprocessing ( Zone 0 ) -------------------
Two dimensional problem.
19838 grid points.
21267 volume elements.
5 surface markers.
198 boundary elements in index 0 (Marker = Airfoils).
22 boundary elements in index 1 (Marker = Inlet).
340 boundary elements in index 2 (Marker = Symmetry1).
340 boundary elements in index 3 (Marker = Symmetry2).
22 boundary elements in index 4 (Marker = Outlet).
3780 triangles.
17487 quadrilaterals.
Setting point connectivity.
Renumbering points (Reverse Cuthill McKee Ordering).
Recomputing point connectivity.
Setting element connectivity.
Checking the numerical grid orientation.
There has been a re-orientation of 39 QUADRILATERAL volume elements.
There has been a re-orientation of 340 LINE surface elements.
Identifying edges and vertices.
Setting the control volume structure.
Area of the computational grid: 0.123052.
Searching for the closest normal neighbors to the surfaces.
Storing a mapping from global to local point index.
Compute the surface curvature.
Max K: 90341.5. Mean K: 108.397. Standard deviation K: 2967.66.
Checking for periodicity.
Computing mesh quality statistics for the dual control volumes.
+--------------------------------------------------------------+
|           Mesh Quality Metric|        Minimum|        Maximum|
+--------------------------------------------------------------+
|    Orthogonality Angle (deg.)|        60.4743|             90|
|     CV Face Area Aspect Ratio|        1.00205|        326.606|
|           CV Sub-Volume Ratio|        1.00039|        2714.01|
+--------------------------------------------------------------+
Finding max control volume width.
Wetted area = 0.172723 ft.
Area projection in the x-plane = 0.021436 ft, y-plane = 0.0820741 ft.
Max. coordinate in the x-direction = 0.498734 ft, y-direction = 0.0506067 ft.
Min. coordinate in the x-direction = 0.416641 ft, y-direction = 0.0291625 ft.
Matching the periodic boundary points for marker pair 1.

   Bad match for point 198.	Nearest donor distance: 9.5993108860e-01.
   Bad match for point 244.	Nearest donor distance: 9.5993108860e-01.
   Bad match for point 245.	Nearest donor distance: 9.5993108860e-01.
   Bad match for point 246.	Nearest donor distance: 9.5993108860e-01.
   Bad match for point 247.	Nearest donor distance: 9.5993108860e-01.
   Bad match for point 248.	Nearest donor distance: 9.5993108860e-01.
   Bad match for point 249.	Nearest donor distance: 9.5993108860e-01.
   Bad match for point 250.	Nearest donor distance: 9.5993108860e-01.
   Bad match for point 251.	Nearest donor distance: 9.5993108860e-01.
   Bad match for point 252.	Nearest donor distance: 9.5993108860e-01.
   Bad match for point 253.	Nearest donor distance: 9.5993108860e-01.
   Bad match for point 254.	Nearest donor distance: 9.5993108860e-01.
   Bad match for point 255.	Nearest donor distance: 9.5993108860e-01.
   Bad match for point 256.	Nearest donor distance: 9.5993108860e-01.
   Bad match for point 257.	Nearest donor distance: 9.5993108860e-01.
   Bad match for point 258.	Nearest donor distance: 9.5993108860e-01.
   Bad match for point 259.	Nearest donor distance: 9.5993108860e-01.
   Bad match for point 260.	Nearest donor distance: 9.5993108860e-01.
   Bad match for point 261.	Nearest donor distance: 9.5993108860e-01.
   Bad match for point 262.	Nearest donor distance: 9.5993108860e-01.
   Bad match for point 263.	Nearest donor distance: 9.5993108860e-01.
   Bad match for point 264.	Nearest donor distance: 9.5993108860e-01.
   Bad match for point 265.	Nearest donor distance: 9.5993108860e-01.
   Bad match for point 266.	Nearest donor distance: 9.5993108860e-01.
   Bad match for point 267.	Nearest donor distance: 9.5993108860e-01.
   Bad match for point 268.	Nearest donor distance: 9.5993108860e-01.
   Bad match for point 269.	Nearest donor distance: 9.5993108860e-01.
   Bad match for point 270.	Nearest donor distance: 9.5993108860e-01.
   Bad match for point 271.	Nearest donor distance: 9.5993108860e-01.
   Bad match for point 272.	Nearest donor distance: 9.5993108860e-01.
   Bad match for point 273.	Nearest donor distance: 9.5993108860e-01.
   Bad match for point 274.	Nearest donor distance: 9.5993108860e-01.
   Bad match for point 275.	Nearest donor distance: 9.5993108860e-01.
   Bad match for point 276.	Nearest donor distance: 9.5993108860e-01.
   Bad match for point 277.	Nearest donor distance: 9.5993108860e-01.
   Bad match for point 278.	Nearest donor distance: 9.5993108860e-01.
   Bad match for point 279.	Nearest donor distance: 9.5993108860e-01.
   Bad match for point 280.	Nearest donor distance: 9.5993108860e-01.
   Bad match for point 281.	Nearest donor distance: 9.5993108860e-01.
   Bad match for point 282.	Nearest donor distance: 9.5993108860e-01.
   Bad match for point 283.	Nearest donor distance: 9.5993108860e-01.
   Bad match for point 284.	Nearest donor distance: 9.5993108860e-01.
   Bad match for point 285.	Nearest donor distance: 9.5993108860e-01.
   Bad match for point 286.	Nearest donor distance: 9.5993108860e-01.
   Bad match for point 287.	Nearest donor distance: 9.5993108860e-01.
   Bad match for point 288.	Nearest donor distance: 9.5993108860e-01.
   Bad match for point 289.	Nearest donor distance: 9.5993108860e-01.
   Bad match for point 290.	Nearest donor distance: 9.5993108860e-01.
   Bad match for point 291.	Nearest donor distance: 9.5993108860e-01.
   Bad match for point 292.	Nearest donor distance: 9.5993108860e-01.
   Bad match for point 293.	Nearest donor distance: 9.5993108860e-01.
   Bad match for point 294.	Nearest donor distance: 9.5993108860e-01.
   Bad match for point 295.	Nearest donor distance: 9.5993108860e-01.
   Bad match for point 296.	Nearest donor distance: 9.5993108860e-01.
   Bad match for point 297.	Nearest donor distance: 9.5993108860e-01.
   Bad match for point 298.	Nearest donor distance: 9.5993108860e-01.
   Bad match for point 299.	Nearest donor distance: 9.5993108860e-01.
   Bad match for point 300.	Nearest donor distance: 9.5993108860e-01.
   Bad match for point 301.	Nearest donor distance: 9.5993108860e-01.
   Bad match for point 302.	Nearest donor distance: 9.5993108860e-01.
   Bad match for point 303.	Nearest donor distance: 9.5993108860e-01.
   Bad match for point 304.	Nearest donor distance: 9.5993108860e-01.
   Bad match for point 305.	Nearest donor distance: 9.5993108860e-01.
   Bad match for point 306.	Nearest donor distance: 9.5993108860e-01.
   Bad match for point 307.	Nearest donor distance: 9.5993108860e-01.
   Bad match for point 308.	Nearest donor distance: 9.5993108860e-01.
   Bad match for point 309.	Nearest donor distance: 9.5993108860e-01.
   Bad match for point 310.	Nearest donor distance: 9.5993108860e-01.
   Bad match for point 311.	Nearest donor distance: 9.5993108860e-01.
   Bad match for point 312.	Nearest donor distance: 9.5993108860e-01.
   Bad match for point 313.	Nearest donor distance: 9.5993108860e-01.
   Bad match for point 314.	Nearest donor distance: 9.5993108860e-01.
   Bad match for point 315.	Nearest donor distance: 9.5993108860e-01.
   Bad match for point 316.	Nearest donor distance: 9.5993108860e-01.
   Bad match for point 317.	Nearest donor distance: 9.5993108860e-01.
   Bad match for point 318.	Nearest donor distance: 9.5993108860e-01.
   Bad match for point 319.	Nearest donor distance: 9.5993108860e-01.
   Bad match for point 320.	Nearest donor distance: 9.5993108860e-01.
   Bad match for point 321.	Nearest donor distance: 9.5993108860e-01.
   Bad match for point 322.	Nearest donor distance: 9.5993108860e-01.
   Bad match for point 323.	Nearest donor distance: 9.5993108860e-01.
   Bad match for point 324.	Nearest donor distance: 9.5993108860e-01.
   Bad match for point 325.	Nearest donor distance: 9.5993108860e-01.
   Bad match for point 326.	Nearest donor distance: 9.5993108860e-01.
   Bad match for point 327.	Nearest donor distance: 9.5993108860e-01.
   Bad match for point 328.	Nearest donor distance: 9.5993108860e-01.
   Bad match for point 329.	Nearest donor distance: 9.5993108860e-01.
   Bad match for point 330.	Nearest donor distance: 9.5993108860e-01.
   Bad match for point 331.	Nearest donor distance: 9.5993108860e-01.
   Bad match for point 332.	Nearest donor distance: 9.5993108860e-01.
   Bad match for point 333.	Nearest donor distance: 9.5993108860e-01.
   Bad match for point 334.	Nearest donor distance: 9.5993108860e-01.
   Bad match for point 335.	Nearest donor distance: 9.5993108860e-01.
   Bad match for point 336.	Nearest donor distance: 9.5993108860e-01.
   Bad match for point 337.	Nearest donor distance: 9.5993108860e-01.
   Bad match for point 338.	Nearest donor distance: 9.5993108860e-01.
   Bad match for point 339.	Nearest donor distance: 9.5993108860e-01.
   Bad match for point 340.	Nearest donor distance: 9.5993108860e-01.
   Bad match for point 341.	Nearest donor distance: 9.5993108860e-01.
   Bad match for point 342.	Nearest donor distance: 9.5993108860e-01.
   Bad match for point 343.	Nearest donor distance: 9.5993108860e-01.
   Bad match for point 344.	Nearest donor distance: 9.5993108860e-01.
   Bad match for point 345.	Nearest donor distance: 9.5993108860e-01.
   Bad match for point 346.	Nearest donor distance: 9.5993108860e-01.
   Bad match for point 347.	Nearest donor distance: 9.5993108860e-01.
   Bad match for point 348.	Nearest donor distance: 9.5993108860e-01.
   Bad match for point 349.	Nearest donor distance: 9.5993108860e-01.
   Bad match for point 350.	Nearest donor distance: 9.5993108860e-01.
   Bad match for point 351.	Nearest donor distance: 9.5993108860e-01.
   Bad match for point 352.	Nearest donor distance: 9.5993108860e-01.
   Bad match for point 353.	Nearest donor distance: 9.5993108860e-01.
   Bad match for point 354.	Nearest donor distance: 9.5993108860e-01.
   Bad match for point 355.	Nearest donor distance: 9.5993108860e-01.
   Bad match for point 356.	Nearest donor distance: 9.5993108860e-01.
   Bad match for point 357.	Nearest donor distance: 9.5993108860e-01.
   Bad match for point 358.	Nearest donor distance: 9.5993108860e-01.
   Bad match for point 359.	Nearest donor distance: 9.5993108860e-01.
   Bad match for point 360.	Nearest donor distance: 9.5993108860e-01.
   Bad match for point 361.	Nearest donor distance: 9.5993108860e-01.
   Bad match for point 362.	Nearest donor distance: 9.5993108860e-01.
   Bad match for point 363.	Nearest donor distance: 9.5993108860e-01.
   Bad match for point 364.	Nearest donor distance: 9.5993108860e-01.
   Bad match for point 365.	Nearest donor distance: 9.5993108860e-01.
   Bad match for point 366.	Nearest donor distance: 9.5993108860e-01.
   Bad match for point 367.	Nearest donor distance: 9.5993108860e-01.
   Bad match for point 368.	Nearest donor distance: 9.5993108860e-01.
   Bad match for point 369.	Nearest donor distance: 9.5993108860e-01.
   Bad match for point 370.	Nearest donor distance: 9.5993108860e-01.
   Bad match for point 371.	Nearest donor distance: 9.5993108860e-01.
   Bad match for point 372.	Nearest donor distance: 9.5993108860e-01.
   Bad match for point 373.	Nearest donor distance: 9.5993108860e-01.
   Bad match for point 374.	Nearest donor distance: 9.5993108860e-01.
   Bad match for point 375.	Nearest donor distance: 9.5993108860e-01.
   Bad match for point 376.	Nearest donor distance: 9.5993108860e-01.
   Bad match for point 377.	Nearest donor distance: 9.5993108860e-01.
   Bad match for point 378.	Nearest donor distance: 9.5993108860e-01.
   Bad match for point 379.	Nearest donor distance: 9.5993108860e-01.
   Bad match for point 380.	Nearest donor distance: 9.5993108860e-01.
   Bad match for point 381.	Nearest donor distance: 9.5993108860e-01.
   Bad match for point 382.	Nearest donor distance: 9.5993108860e-01.
   Bad match for point 383.	Nearest donor distance: 9.5993108860e-01.
   Bad match for point 384.	Nearest donor distance: 9.5993108860e-01.
   Bad match for point 385.	Nearest donor distance: 9.5993108860e-01.
   Bad match for point 386.	Nearest donor distance: 9.5993108860e-01.
   Bad match for point 387.	Nearest donor distance: 9.5993108860e-01.
   Bad match for point 388.	Nearest donor distance: 9.5993108860e-01.
   Bad match for point 389.	Nearest donor distance: 9.5993108860e-01.
   Bad match for point 390.	Nearest donor distance: 9.5993108860e-01.
   Bad match for point 391.	Nearest donor distance: 9.5993108860e-01.
   Bad match for point 392.	Nearest donor distance: 9.5993108860e-01.
   Bad match for point 393.	Nearest donor distance: 9.5993108860e-01.
   Bad match for point 394.	Nearest donor distance: 9.5993108860e-01.
   Bad match for point 395.	Nearest donor distance: 9.5993108860e-01.
   Bad match for point 396.	Nearest donor distance: 9.5993108860e-01.
   Bad match for point 397.	Nearest donor distance: 9.5993108860e-01.
   Bad match for point 398.	Nearest donor distance: 9.5993108860e-01.
   Bad match for point 399.	Nearest donor distance: 9.5993108860e-01.
   Bad match for point 400.	Nearest donor distance: 9.5993108860e-01.
   Bad match for point 401.	Nearest donor distance: 9.5993108860e-01.
   Bad match for point 402.	Nearest donor distance: 9.5993108860e-01.
   Bad match for point 403.	Nearest donor distance: 9.5993108860e-01.
   Bad match for point 404.	Nearest donor distance: 9.5993108860e-01.
   Bad match for point 405.	Nearest donor distance: 9.5993108860e-01.
   Bad match for point 406.	Nearest donor distance: 9.5993108860e-01.
   Bad match for point 407.	Nearest donor distance: 9.5993108860e-01.
   Bad match for point 408.	Nearest donor distance: 9.5993108860e-01.
   Bad match for point 409.	Nearest donor distance: 9.5993108860e-01.
   Bad match for point 410.	Nearest donor distance: 9.5993108860e-01.
   Bad match for point 411.	Nearest donor distance: 9.5993108860e-01.
   Bad match for point 412.	Nearest donor distance: 9.5993108860e-01.
   Bad match for point 413.	Nearest donor distance: 9.5993108860e-01.
   Bad match for point 414.	Nearest donor distance: 9.5993108860e-01.
   Bad match for point 415.	Nearest donor distance: 9.5993108860e-01.
   Bad match for point 416.	Nearest donor distance: 9.5993108860e-01.
   Bad match for point 417.	Nearest donor distance: 9.5993108860e-01.
   Bad match for point 418.	Nearest donor distance: 9.5993108860e-01.
   Bad match for point 419.	Nearest donor distance: 9.5993108860e-01.
   Bad match for point 420.	Nearest donor distance: 9.5993108860e-01.
   Bad match for point 421.	Nearest donor distance: 9.5993108860e-01.
   Bad match for point 422.	Nearest donor distance: 9.5993108860e-01.
   Bad match for point 423.	Nearest donor distance: 9.5993108860e-01.
   Bad match for point 424.	Nearest donor distance: 9.5993108860e-01.
   Bad match for point 425.	Nearest donor distance: 9.5993108860e-01.
   Bad match for point 426.	Nearest donor distance: 9.5993108860e-01.
   Bad match for point 427.	Nearest donor distance: 9.5993108860e-01.
   Bad match for point 428.	Nearest donor distance: 9.5993108860e-01.
   Bad match for point 429.	Nearest donor distance: 9.5993108860e-01.
   Bad match for point 430.	Nearest donor distance: 9.5993108860e-01.
   Bad match for point 431.	Nearest donor distance: 9.5993108860e-01.
   Bad match for point 432.	Nearest donor distance: 9.5993108860e-01.
   Bad match for point 433.	Nearest donor distance: 9.5993108860e-01.
   Bad match for point 434.	Nearest donor distance: 9.5993108860e-01.
   Bad match for point 435.	Nearest donor distance: 9.5993108860e-01.
   Bad match for point 436.	Nearest donor distance: 9.5993108860e-01.
   Bad match for point 437.	Nearest donor distance: 9.5993108860e-01.
   Bad match for point 438.	Nearest donor distance: 9.5993108860e-01.
   Bad match for point 439.	Nearest donor distance: 9.5993108860e-01.
   Bad match for point 440.	Nearest donor distance: 9.5993108860e-01.
   Bad match for point 441.	Nearest donor distance: 9.5993108860e-01.
   Bad match for point 442.	Nearest donor distance: 9.5993108860e-01.
   Bad match for point 443.	Nearest donor distance: 9.5993108860e-01.
   Bad match for point 444.	Nearest donor distance: 9.5993108860e-01.
   Bad match for point 445.	Nearest donor distance: 9.5993108860e-01.
   Bad match for point 446.	Nearest donor distance: 9.5993108860e-01.
   Bad match for point 447.	Nearest donor distance: 9.5993108860e-01.
   Bad match for point 448.	Nearest donor distance: 9.5993108860e-01.
   Bad match for point 449.	Nearest donor distance: 9.5993108860e-01.
   Bad match for point 450.	Nearest donor distance: 9.5993108860e-01.
   Bad match for point 451.	Nearest donor distance: 9.5993108860e-01.
   Bad match for point 452.	Nearest donor distance: 9.5993108860e-01.
   Bad match for point 453.	Nearest donor distance: 9.5993108860e-01.
   Bad match for point 454.	Nearest donor distance: 9.5993108860e-01.
   Bad match for point 455.	Nearest donor distance: 9.5993108860e-01.
   Bad match for point 456.	Nearest donor distance: 9.5993108860e-01.
   Bad match for point 457.	Nearest donor distance: 9.5993108860e-01.
   Bad match for point 458.	Nearest donor distance: 9.5993108860e-01.
   Bad match for point 459.	Nearest donor distance: 9.5993108860e-01.
   Bad match for point 460.	Nearest donor distance: 9.5993108860e-01.
   Bad match for point 461.	Nearest donor distance: 9.5993108860e-01.
   Bad match for point 462.	Nearest donor distance: 9.5993108860e-01.
   Bad match for point 463.	Nearest donor distance: 9.5993108860e-01.
   Bad match for point 464.	Nearest donor distance: 9.5993108860e-01.
   Bad match for point 465.	Nearest donor distance: 9.5993108860e-01.
   Bad match for point 466.	Nearest donor distance: 9.5993108860e-01.
   Bad match for point 467.	Nearest donor distance: 9.5993108860e-01.
   Bad match for point 468.	Nearest donor distance: 9.5993108860e-01.
   Bad match for point 469.	Nearest donor distance: 9.5993108860e-01.
   Bad match for point 470.	Nearest donor distance: 9.5993108860e-01.
   Bad match for point 471.	Nearest donor distance: 9.5993108860e-01.
   Bad match for point 472.	Nearest donor distance: 9.5993108860e-01.
   Bad match for point 473.	Nearest donor distance: 9.5993108860e-01.
   Bad match for point 474.	Nearest donor distance: 9.5993108860e-01.
   Bad match for point 475.	Nearest donor distance: 9.5993108860e-01.
   Bad match for point 476.	Nearest donor distance: 9.5993108860e-01.
   Bad match for point 477.	Nearest donor distance: 9.5993108860e-01.
   Bad match for point 478.	Nearest donor distance: 9.5993108860e-01.
   Bad match for point 479.	Nearest donor distance: 9.5993108860e-01.
   Bad match for point 480.	Nearest donor distance: 9.5993108860e-01.
   Bad match for point 481.	Nearest donor distance: 9.5993108860e-01.
   Bad match for point 482.	Nearest donor distance: 9.5993108860e-01.
   Bad match for point 483.	Nearest donor distance: 9.5993108860e-01.
   Bad match for point 484.	Nearest donor distance: 9.5993108860e-01.
   Bad match for point 485.	Nearest donor distance: 9.5993108860e-01.
   Bad match for point 486.	Nearest donor distance: 9.5993108860e-01.
   Bad match for point 487.	Nearest donor distance: 9.5993108860e-01.
   Bad match for point 488.	Nearest donor distance: 9.5993108860e-01.
   Bad match for point 489.	Nearest donor distance: 9.5993108860e-01.
   Bad match for point 490.	Nearest donor distance: 9.5993108860e-01.
   Bad match for point 491.	Nearest donor distance: 9.5993108860e-01.
   Bad match for point 492.	Nearest donor distance: 9.5993108860e-01.
   Bad match for point 493.	Nearest donor distance: 9.5993108860e-01.
   Bad match for point 494.	Nearest donor distance: 9.5993108860e-01.
   Bad match for point 495.	Nearest donor distance: 9.5993108860e-01.
   Bad match for point 496.	Nearest donor distance: 9.5993108860e-01.
   Bad match for point 497.	Nearest donor distance: 9.5993108860e-01.
   Bad match for point 498.	Nearest donor distance: 9.5993108860e-01.
   Bad match for point 499.	Nearest donor distance: 9.5993108860e-01.
   Bad match for point 500.	Nearest donor distance: 9.5993108860e-01.
   Bad match for point 501.	Nearest donor distance: 9.5993108860e-01.
   Bad match for point 502.	Nearest donor distance: 9.5993108860e-01.
   Bad match for point 503.	Nearest donor distance: 9.5993108860e-01.
   Bad match for point 504.	Nearest donor distance: 9.5993108860e-01.
   Bad match for point 505.	Nearest donor distance: 9.5993108860e-01.
   Bad match for point 506.	Nearest donor distance: 9.5993108860e-01.
   Bad match for point 507.	Nearest donor distance: 9.5993108860e-01.
   Bad match for point 508.	Nearest donor distance: 9.5993108860e-01.
   Bad match for point 509.	Nearest donor distance: 9.5993108860e-01.
   Bad match for point 510.	Nearest donor distance: 9.5993108860e-01.
   Bad match for point 511.	Nearest donor distance: 9.5993108860e-01.
   Bad match for point 512.	Nearest donor distance: 9.5993108860e-01.
   Bad match for point 513.	Nearest donor distance: 9.5993108860e-01.
   Bad match for point 514.	Nearest donor distance: 9.5993108860e-01.
   Bad match for point 515.	Nearest donor distance: 9.5993108860e-01.
   Bad match for point 516.	Nearest donor distance: 9.5993108860e-01.
   Bad match for point 517.	Nearest donor distance: 9.5993108860e-01.
   Bad match for point 518.	Nearest donor distance: 9.5993108860e-01.
   Bad match for point 519.	Nearest donor distance: 9.5993108860e-01.
   Bad match for point 520.	Nearest donor distance: 9.5993108860e-01.
   Bad match for point 521.	Nearest donor distance: 9.5993108860e-01.
   Bad match for point 522.	Nearest donor distance: 9.5993108860e-01.
   Bad match for point 523.	Nearest donor distance: 9.5993108860e-01.
   Bad match for point 524.	Nearest donor distance: 9.5993108860e-01.
   Bad match for point 525.	Nearest donor distance: 9.5993108860e-01.
   Bad match for point 526.	Nearest donor distance: 9.5993108860e-01.
   Bad match for point 527.	Nearest donor distance: 9.5993108860e-01.
   Bad match for point 528.	Nearest donor distance: 9.5993108860e-01.
   Bad match for point 529.	Nearest donor distance: 9.5993108860e-01.
   Bad match for point 530.	Nearest donor distance: 9.5993108860e-01.
   Bad match for point 531.	Nearest donor distance: 9.5993108860e-01.
   Bad match for point 532.	Nearest donor distance: 9.5993108860e-01.
   Bad match for point 533.	Nearest donor distance: 9.5993108860e-01.
   Bad match for point 534.	Nearest donor distance: 9.5993108860e-01.
   Bad match for point 535.	Nearest donor distance: 9.5993108860e-01.
   Bad match for point 536.	Nearest donor distance: 9.5993108860e-01.
   Bad match for point 537.	Nearest donor distance: 9.5993108860e-01.
   Bad match for point 538.	Nearest donor distance: 9.5993108860e-01.
   Bad match for point 539.	Nearest donor distance: 9.5993108860e-01.
   Bad match for point 540.	Nearest donor distance: 9.5993108860e-01.
   Bad match for point 541.	Nearest donor distance: 9.5993108860e-01.
   Bad match for point 542.	Nearest donor distance: 9.5993108860e-01.
   Bad match for point 543.	Nearest donor distance: 9.5993108860e-01.
   Bad match for point 544.	Nearest donor distance: 9.5993108860e-01.
   Bad match for point 545.	Nearest donor distance: 9.5993108860e-01.
   Bad match for point 546.	Nearest donor distance: 9.5993108860e-01.
   Bad match for point 547.	Nearest donor distance: 9.5993108860e-01.
   Bad match for point 548.	Nearest donor distance: 9.5993108860e-01.
   Bad match for point 549.	Nearest donor distance: 9.5993108860e-01.
   Bad match for point 550.	Nearest donor distance: 9.5993108860e-01.
   Bad match for point 551.	Nearest donor distance: 9.5993108860e-01.
   Bad match for point 552.	Nearest donor distance: 9.5993108860e-01.
   Bad match for point 553.	Nearest donor distance: 9.5993108860e-01.
   Bad match for point 554.	Nearest donor distance: 9.5993108860e-01.
   Bad match for point 555.	Nearest donor distance: 9.5993108860e-01.
   Bad match for point 556.	Nearest donor distance: 9.5993108860e-01.
   Bad match for point 557.	Nearest donor distance: 9.5993108860e-01.
   Bad match for point 558.	Nearest donor distance: 9.5993108860e-01.
   Bad match for point 559.	Nearest donor distance: 9.5993108860e-01.
   Bad match for point 560.	Nearest donor distance: 9.5993108860e-01.
   Bad match for point 561.	Nearest donor distance: 9.5993108860e-01.
   Bad match for point 562.	Nearest donor distance: 9.5993108860e-01.
   Bad match for point 563.	Nearest donor distance: 9.5993108860e-01.
   Bad match for point 564.	Nearest donor distance: 9.5993108860e-01.
   Bad match for point 565.	Nearest donor distance: 9.5993108860e-01.
   Bad match for point 566.	Nearest donor distance: 9.5993108860e-01.
   Bad match for point 567.	Nearest donor distance: 9.5993108860e-01.
   Bad match for point 568.	Nearest donor distance: 9.5993108860e-01.
   Bad match for point 569.	Nearest donor distance: 9.5993108860e-01.
   Bad match for point 570.	Nearest donor distance: 9.5993108860e-01.
   Bad match for point 571.	Nearest donor distance: 9.5993108860e-01.
   Bad match for point 572.	Nearest donor distance: 9.5993108860e-01.
   Bad match for point 573.	Nearest donor distance: 9.5993108860e-01.
   Bad match for point 574.	Nearest donor distance: 9.5993108860e-01.
   Bad match for point 575.	Nearest donor distance: 9.5993108860e-01.
   Bad match for point 576.	Nearest donor distance: 9.5993108860e-01.
   Bad match for point 577.	Nearest donor distance: 9.5993108860e-01.
   Bad match for point 578.	Nearest donor distance: 9.5993108860e-01.
   Bad match for point 579.	Nearest donor distance: 9.5993108860e-01.
   Bad match for point 580.	Nearest donor distance: 9.5993108860e-01.
   Bad match for point 581.	Nearest donor distance: 9.5993108860e-01.
   Bad match for point 582.	Nearest donor distance: 9.5993108860e-01.
   Bad match for point 199.	Nearest donor distance: 9.5993108860e-01.
   Bad match for point 583.	Nearest donor distance: 9.5993108860e-01.
   Bad match for point 201.	Nearest donor distance: 9.5993108860e-01.
   Bad match for point 584.	Nearest donor distance: 9.5993108860e-01.
   Bad match for point 585.	Nearest donor distance: 9.5993108860e-01.
   Bad match for point 586.	Nearest donor distance: 9.5993108860e-01.
   Bad match for point 587.	Nearest donor distance: 9.5993108860e-01.
   Bad match for point 588.	Nearest donor distance: 9.5993108860e-01.
   Bad match for point 589.	Nearest donor distance: 9.5993108860e-01.
   Bad match for point 590.	Nearest donor distance: 9.5993108860e-01.
   Bad match for point 591.	Nearest donor distance: 9.5993108860e-01.
   Bad match for point 592.	Nearest donor distance: 9.5993108860e-01.
   Bad match for point 593.	Nearest donor distance: 9.5993108860e-01.
   Bad match for point 594.	Nearest donor distance: 9.5993108860e-01.
   Bad match for point 595.	Nearest donor distance: 9.5993108860e-01.
   Bad match for point 596.	Nearest donor distance: 9.5993108860e-01.
   Bad match for point 597.	Nearest donor distance: 9.5993108860e-01.
   Bad match for point 598.	Nearest donor distance: 9.5993108860e-01.
   Bad match for point 599.	Nearest donor distance: 9.5993108860e-01.
   Bad match for point 600.	Nearest donor distance: 9.5993108860e-01.
   Bad match for point 601.	Nearest donor distance: 9.5993108860e-01.
   Bad match for point 602.	Nearest donor distance: 9.5993108860e-01.
   Bad match for point 603.	Nearest donor distance: 9.5993108860e-01.
   Bad match for point 604.	Nearest donor distance: 9.5993108860e-01.
   Bad match for point 605.	Nearest donor distance: 9.5993108860e-01.
   Bad match for point 606.	Nearest donor distance: 9.5993108860e-01.
   Bad match for point 607.	Nearest donor distance: 9.5993108860e-01.
   Bad match for point 608.	Nearest donor distance: 9.5993108860e-01.
   Bad match for point 609.	Nearest donor distance: 9.5993108860e-01.
   Bad match for point 610.	Nearest donor distance: 9.5993108860e-01.
   Bad match for point 611.	Nearest donor distance: 9.5993108860e-01.
   Bad match for point 612.	Nearest donor distance: 9.5993108860e-01.
   Bad match for point 613.	Nearest donor distance: 9.5993108860e-01.
   Bad match for point 614.	Nearest donor distance: 9.5993108860e-01.
   Bad match for point 615.	Nearest donor distance: 9.5993108860e-01.
   Bad match for point 616.	Nearest donor distance: 9.5993108860e-01.
   Bad match for point 617.	Nearest donor distance: 9.5993108860e-01.
   Bad match for point 618.	Nearest donor distance: 9.5993108860e-01.
   Bad match for point 619.	Nearest donor distance: 9.5993108860e-01.
   Bad match for point 620.	Nearest donor distance: 9.5993108860e-01.
   Bad match for point 621.	Nearest donor distance: 9.5993108860e-01.
   Bad match for point 622.	Nearest donor distance: 9.5993108860e-01.
   Bad match for point 623.	Nearest donor distance: 9.5993108860e-01.
   Bad match for point 624.	Nearest donor distance: 9.5993108860e-01.
   Bad match for point 625.	Nearest donor distance: 9.5993108860e-01.
   Bad match for point 626.	Nearest donor distance: 9.5993108860e-01.
   Bad match for point 627.	Nearest donor distance: 9.5993108860e-01.
   Bad match for point 628.	Nearest donor distance: 9.5993108860e-01.
   Bad match for point 629.	Nearest donor distance: 9.5993108860e-01.
   Bad match for point 630.	Nearest donor distance: 9.5993108860e-01.
   Bad match for point 631.	Nearest donor distance: 9.5993108860e-01.
   Bad match for point 632.	Nearest donor distance: 9.5993108860e-01.
   Bad match for point 633.	Nearest donor distance: 9.5993108860e-01.
   Bad match for point 634.	Nearest donor distance: 9.5993108860e-01.
   Bad match for point 635.	Nearest donor distance: 9.5993108860e-01.
   Bad match for point 636.	Nearest donor distance: 9.5993108860e-01.
   Bad match for point 637.	Nearest donor distance: 9.5993108860e-01.
   Bad match for point 638.	Nearest donor distance: 9.5993108860e-01.
   Bad match for point 639.	Nearest donor distance: 9.5993108860e-01.
   Bad match for point 640.	Nearest donor distance: 9.5993108860e-01.
   Bad match for point 641.	Nearest donor distance: 9.5993108860e-01.
   Bad match for point 642.	Nearest donor distance: 9.5993108860e-01.
   Bad match for point 643.	Nearest donor distance: 9.5993108860e-01.
   Bad match for point 644.	Nearest donor distance: 9.5993108860e-01.
   Bad match for point 645.	Nearest donor distance: 9.5993108860e-01.
   Bad match for point 646.	Nearest donor distance: 9.5993108860e-01.
   Bad match for point 647.	Nearest donor distance: 9.5993108860e-01.
   Bad match for point 648.	Nearest donor distance: 9.5993108860e-01.
   Bad match for point 649.	Nearest donor distance: 9.5993108860e-01.
   Bad match for point 650.	Nearest donor distance: 9.5993108860e-01.
   Bad match for point 651.	Nearest donor distance: 9.5993108860e-01.
   Bad match for point 652.	Nearest donor distance: 9.5993108860e-01.
   Bad match for point 653.	Nearest donor distance: 9.5993108860e-01.
   Bad match for point 654.	Nearest donor distance: 9.5993108860e-01.
   Bad match for point 655.	Nearest donor distance: 9.5993108860e-01.
   Bad match for point 656.	Nearest donor distance: 9.5993108860e-01.
   Bad match for point 657.	Nearest donor distance: 9.5993108860e-01.
   Bad match for point 658.	Nearest donor distance: 9.5993108860e-01.
   Bad match for point 659.	Nearest donor distance: 9.5993108860e-01.
   Bad match for point 660.	Nearest donor distance: 9.5993108860e-01.
   Bad match for point 661.	Nearest donor distance: 9.5993108860e-01.
   Bad match for point 662.	Nearest donor distance: 9.5993108860e-01.
   Bad match for point 663.	Nearest donor distance: 9.5993108860e-01.
   Bad match for point 664.	Nearest donor distance: 9.5993108860e-01.
   Bad match for point 665.	Nearest donor distance: 9.5993108860e-01.
   Bad match for point 666.	Nearest donor distance: 9.5993108860e-01.
   Bad match for point 667.	Nearest donor distance: 9.5993108860e-01.
   Bad match for point 668.	Nearest donor distance: 9.5993108860e-01.
   Bad match for point 669.	Nearest donor distance: 9.5993108860e-01.
   Bad match for point 670.	Nearest donor distance: 9.5993108860e-01.
   Bad match for point 671.	Nearest donor distance: 9.5993108860e-01.
   Bad match for point 672.	Nearest donor distance: 9.5993108860e-01.
   Bad match for point 673.	Nearest donor distance: 9.5993108860e-01.
   Bad match for point 674.	Nearest donor distance: 9.5993108860e-01.
   Bad match for point 675.	Nearest donor distance: 9.5993108860e-01.
   Bad match for point 676.	Nearest donor distance: 9.5993108860e-01.
   Bad match for point 677.	Nearest donor distance: 9.5993108860e-01.
   Bad match for point 678.	Nearest donor distance: 9.5993108860e-01.
   Bad match for point 679.	Nearest donor distance: 9.5993108860e-01.
   Bad match for point 680.	Nearest donor distance: 9.5993108860e-01.
   Bad match for point 681.	Nearest donor distance: 9.5993108860e-01.
   Bad match for point 682.	Nearest donor distance: 9.5993108860e-01.
   Bad match for point 683.	Nearest donor distance: 9.5993108860e-01.
   Bad match for point 684.	Nearest donor distance: 9.5993108860e-01.
   Bad match for point 685.	Nearest donor distance: 9.5993108860e-01.
   Bad match for point 686.	Nearest donor distance: 9.5993108860e-01.
   Bad match for point 687.	Nearest donor distance: 9.5993108860e-01.
   Bad match for point 688.	Nearest donor distance: 9.5993108860e-01.
   Bad match for point 689.	Nearest donor distance: 9.5993108860e-01.
   Bad match for point 690.	Nearest donor distance: 9.5993108860e-01.
   Bad match for point 691.	Nearest donor distance: 9.5993108860e-01.
   Bad match for point 692.	Nearest donor distance: 9.5993108860e-01.
   Bad match for point 693.	Nearest donor distance: 9.5993108860e-01.
   Bad match for point 694.	Nearest donor distance: 9.5993108860e-01.
   Bad match for point 695.	Nearest donor distance: 9.5993108860e-01.
   Bad match for point 696.	Nearest donor distance: 9.5993108860e-01.
   Bad match for point 697.	Nearest donor distance: 9.5993108860e-01.
   Bad match for point 698.	Nearest donor distance: 9.5993108860e-01.
   Bad match for point 699.	Nearest donor distance: 9.5993108860e-01.
   Bad match for point 700.	Nearest donor distance: 9.5993108860e-01.
   Bad match for point 701.	Nearest donor distance: 9.5993108860e-01.
   Bad match for point 702.	Nearest donor distance: 9.5993108860e-01.
   Bad match for point 703.	Nearest donor distance: 9.5993108860e-01.
   Bad match for point 704.	Nearest donor distance: 9.5993108860e-01.
   Bad match for point 705.	Nearest donor distance: 9.5993108860e-01.
   Bad match for point 706.	Nearest donor distance: 9.5993108860e-01.
   Bad match for point 707.	Nearest donor distance: 9.5993108860e-01.
   Bad match for point 708.	Nearest donor distance: 9.5993108860e-01.
   Bad match for point 709.	Nearest donor distance: 9.5993108860e-01.
   Bad match for point 710.	Nearest donor distance: 9.5993108860e-01.
   Bad match for point 711.	Nearest donor distance: 9.5993108860e-01.
   Bad match for point 712.	Nearest donor distance: 9.5993108860e-01.
   Bad match for point 713.	Nearest donor distance: 9.5993108860e-01.
   Bad match for point 714.	Nearest donor distance: 9.5993108860e-01.
   Bad match for point 715.	Nearest donor distance: 9.5993108860e-01.
   Bad match for point 716.	Nearest donor distance: 9.5993108860e-01.
   Bad match for point 717.	Nearest donor distance: 9.5993108860e-01.
   Bad match for point 718.	Nearest donor distance: 9.5993108860e-01.
   Bad match for point 719.	Nearest donor distance: 9.5993108860e-01.
   Bad match for point 720.	Nearest donor distance: 9.5993108860e-01.
   Bad match for point 721.	Nearest donor distance: 9.5993108860e-01.
   Bad match for point 722.	Nearest donor distance: 9.5993108860e-01.
   Bad match for point 723.	Nearest donor distance: 9.5993108860e-01.
   Bad match for point 724.	Nearest donor distance: 9.5993108860e-01.
   Bad match for point 725.	Nearest donor distance: 9.5993108860e-01.
   Bad match for point 726.	Nearest donor distance: 9.5993108860e-01.
   Bad match for point 727.	Nearest donor distance: 9.5993108860e-01.
   Bad match for point 728.	Nearest donor distance: 9.5993108860e-01.
   Bad match for point 729.	Nearest donor distance: 9.5993108860e-01.
   Bad match for point 730.	Nearest donor distance: 9.5993108860e-01.
   Bad match for point 731.	Nearest donor distance: 9.5993108860e-01.
   Bad match for point 732.	Nearest donor distance: 9.5993108860e-01.
   Bad match for point 733.	Nearest donor distance: 9.5993108860e-01.
   Bad match for point 734.	Nearest donor distance: 9.5993108860e-01.
   Bad match for point 735.	Nearest donor distance: 9.5993108860e-01.
   Bad match for point 736.	Nearest donor distance: 9.5993108860e-01.
   Bad match for point 737.	Nearest donor distance: 9.5993108860e-01.
   Bad match for point 738.	Nearest donor distance: 9.5993108860e-01.
   Bad match for point 739.	Nearest donor distance: 9.5993108860e-01.
   Bad match for point 740.	Nearest donor distance: 9.5993108860e-01.
   Bad match for point 741.	Nearest donor distance: 9.5993108860e-01.
   Bad match for point 742.	Nearest donor distance: 9.5993108860e-01.
   Bad match for point 743.	Nearest donor distance: 9.5993108860e-01.
   Bad match for point 744.	Nearest donor distance: 9.5993108860e-01.
   Bad match for point 745.	Nearest donor distance: 9.5993108860e-01.
   Bad match for point 746.	Nearest donor distance: 9.5993108860e-01.
   Bad match for point 747.	Nearest donor distance: 9.5993108860e-01.
   Bad match for point 748.	Nearest donor distance: 9.5993108860e-01.
   Bad match for point 749.	Nearest donor distance: 9.5993108860e-01.
   Bad match for point 750.	Nearest donor distance: 9.5993108860e-01.
   Bad match for point 751.	Nearest donor distance: 9.5993108860e-01.
   Bad match for point 752.	Nearest donor distance: 9.5993108860e-01.
   Bad match for point 753.	Nearest donor distance: 9.5993108860e-01.
   Bad match for point 754.	Nearest donor distance: 9.5993108860e-01.
   Bad match for point 755.	Nearest donor distance: 9.5993108860e-01.
   Bad match for point 756.	Nearest donor distance: 9.5993108860e-01.
   Bad match for point 757.	Nearest donor distance: 9.5993108860e-01.
   Bad match for point 758.	Nearest donor distance: 9.5993108860e-01.
   Bad match for point 759.	Nearest donor distance: 9.5993108860e-01.
   Bad match for point 760.	Nearest donor distance: 9.5993108860e-01.
   Bad match for point 761.	Nearest donor distance: 9.5993108860e-01.
   Bad match for point 762.	Nearest donor distance: 9.5993108860e-01.
   Bad match for point 763.	Nearest donor distance: 9.5993108860e-01.
   Bad match for point 764.	Nearest donor distance: 9.5993108860e-01.
   Bad match for point 765.	Nearest donor distance: 9.5993108860e-01.
   Bad match for point 766.	Nearest donor distance: 9.5993108860e-01.
   Bad match for point 767.	Nearest donor distance: 9.5993108860e-01.
   Bad match for point 768.	Nearest donor distance: 9.5993108860e-01.
   Bad match for point 769.	Nearest donor distance: 9.5993108860e-01.
   Bad match for point 770.	Nearest donor distance: 9.5993108860e-01.
   Bad match for point 771.	Nearest donor distance: 9.5993108860e-01.
   Bad match for point 772.	Nearest donor distance: 9.5993108860e-01.
   Bad match for point 773.	Nearest donor distance: 9.5993108860e-01.
   Bad match for point 774.	Nearest donor distance: 9.5993108860e-01.
   Bad match for point 775.	Nearest donor distance: 9.5993108860e-01.
   Bad match for point 776.	Nearest donor distance: 9.5993108860e-01.
   Bad match for point 777.	Nearest donor distance: 9.5993108860e-01.
   Bad match for point 778.	Nearest donor distance: 9.5993108860e-01.
   Bad match for point 779.	Nearest donor distance: 9.5993108860e-01.
   Bad match for point 780.	Nearest donor distance: 9.5993108860e-01.
   Bad match for point 781.	Nearest donor distance: 9.5993108860e-01.
   Bad match for point 782.	Nearest donor distance: 9.5993108860e-01.
   Bad match for point 783.	Nearest donor distance: 9.5993108860e-01.
   Bad match for point 784.	Nearest donor distance: 9.5993108860e-01.
   Bad match for point 785.	Nearest donor distance: 9.5993108860e-01.
   Bad match for point 786.	Nearest donor distance: 9.5993108860e-01.
   Bad match for point 787.	Nearest donor distance: 9.5993108860e-01.
   Bad match for point 788.	Nearest donor distance: 9.5993108860e-01.
   Bad match for point 789.	Nearest donor distance: 9.5993108860e-01.
   Bad match for point 790.	Nearest donor distance: 9.5993108860e-01.
   Bad match for point 791.	Nearest donor distance: 9.5993108860e-01.
   Bad match for point 792.	Nearest donor distance: 9.5993108860e-01.
   Bad match for point 793.	Nearest donor distance: 9.5993108860e-01.
   Bad match for point 794.	Nearest donor distance: 9.5993108860e-01.
   Bad match for point 795.	Nearest donor distance: 9.5993108860e-01.
   Bad match for point 796.	Nearest donor distance: 9.5993108860e-01.
   Bad match for point 797.	Nearest donor distance: 9.5993108860e-01.
   Bad match for point 798.	Nearest donor distance: 9.5993108860e-01.
   Bad match for point 799.	Nearest donor distance: 9.5993108860e-01.
   Bad match for point 800.	Nearest donor distance: 9.5993108860e-01.
   Bad match for point 801.	Nearest donor distance: 9.5993108860e-01.
   Bad match for point 802.	Nearest donor distance: 9.5993108860e-01.
   Bad match for point 803.	Nearest donor distance: 9.5993108860e-01.
   Bad match for point 804.	Nearest donor distance: 9.5993108860e-01.
   Bad match for point 805.	Nearest donor distance: 9.5993108860e-01.
   Bad match for point 806.	Nearest donor distance: 9.5993108860e-01.
   Bad match for point 807.	Nearest donor distance: 9.5993108860e-01.
   Bad match for point 808.	Nearest donor distance: 9.5993108860e-01.
   Bad match for point 809.	Nearest donor distance: 9.5993108860e-01.
   Bad match for point 810.	Nearest donor distance: 9.5993108860e-01.
   Bad match for point 811.	Nearest donor distance: 9.5993108860e-01.
   Bad match for point 812.	Nearest donor distance: 9.5993108860e-01.
   Bad match for point 813.	Nearest donor distance: 9.5993108860e-01.
   Bad match for point 814.	Nearest donor distance: 9.5993108860e-01.
   Bad match for point 815.	Nearest donor distance: 9.5993108860e-01.
   Bad match for point 816.	Nearest donor distance: 9.5993108860e-01.
   Bad match for point 817.	Nearest donor distance: 9.5993108860e-01.
   Bad match for point 818.	Nearest donor distance: 9.5993108860e-01.
   Bad match for point 819.	Nearest donor distance: 9.5993108860e-01.
   Bad match for point 820.	Nearest donor distance: 9.5993108860e-01.
   Bad match for point 821.	Nearest donor distance: 9.5993108860e-01.
   Bad match for point 822.	Nearest donor distance: 9.5993108860e-01.
   Bad match for point 823.	Nearest donor distance: 9.5993108860e-01.
   Bad match for point 824.	Nearest donor distance: 9.5993108860e-01.
   Bad match for point 825.	Nearest donor distance: 9.5993108860e-01.
   Bad match for point 826.	Nearest donor distance: 9.5993108860e-01.
   Bad match for point 827.	Nearest donor distance: 9.5993108860e-01.
   Bad match for point 828.	Nearest donor distance: 9.5993108860e-01.
   Bad match for point 829.	Nearest donor distance: 9.5993108860e-01.
   Bad match for point 830.	Nearest donor distance: 9.5993108860e-01.
   Bad match for point 831.	Nearest donor distance: 9.5993108860e-01.
   Bad match for point 832.	Nearest donor distance: 9.5993108860e-01.
   Bad match for point 833.	Nearest donor distance: 9.5993108860e-01.
   Bad match for point 834.	Nearest donor distance: 9.5993108860e-01.
   Bad match for point 835.	Nearest donor distance: 9.5993108860e-01.
   Bad match for point 836.	Nearest donor distance: 9.5993108860e-01.
   Bad match for point 837.	Nearest donor distance: 9.5993108860e-01.
   Bad match for point 838.	Nearest donor distance: 9.5993108860e-01.
   Bad match for point 839.	Nearest donor distance: 9.5993108860e-01.
   Bad match for point 840.	Nearest donor distance: 9.5993108860e-01.
   Bad match for point 841.	Nearest donor distance: 9.5993108860e-01.
   Bad match for point 842.	Nearest donor distance: 9.5993108860e-01.
   Bad match for point 843.	Nearest donor distance: 9.5993108860e-01.
   Bad match for point 844.	Nearest donor distance: 9.5993108860e-01.
   Bad match for point 845.	Nearest donor distance: 9.5993108860e-01.
   Bad match for point 846.	Nearest donor distance: 9.5993108860e-01.
   Bad match for point 847.	Nearest donor distance: 9.5993108860e-01.
   Bad match for point 848.	Nearest donor distance: 9.5993108860e-01.
   Bad match for point 849.	Nearest donor distance: 9.5993108860e-01.
   Bad match for point 850.	Nearest donor distance: 9.5993108860e-01.
   Bad match for point 851.	Nearest donor distance: 9.5993108860e-01.
   Bad match for point 852.	Nearest donor distance: 9.5993108860e-01.
   Bad match for point 853.	Nearest donor distance: 9.5993108860e-01.
   Bad match for point 854.	Nearest donor distance: 9.5993108860e-01.
   Bad match for point 855.	Nearest donor distance: 9.5993108860e-01.
   Bad match for point 856.	Nearest donor distance: 9.5993108860e-01.
   Bad match for point 857.	Nearest donor distance: 9.5993108860e-01.
   Bad match for point 858.	Nearest donor distance: 9.5993108860e-01.
   Bad match for point 859.	Nearest donor distance: 9.5993108860e-01.
   Bad match for point 860.	Nearest donor distance: 9.5993108860e-01.
   Bad match for point 861.	Nearest donor distance: 9.5993108860e-01.
   Bad match for point 862.	Nearest donor distance: 9.5993108860e-01.
   Bad match for point 863.	Nearest donor distance: 9.5993108860e-01.
   Bad match for point 864.	Nearest donor distance: 9.5993108860e-01.
   Bad match for point 865.	Nearest donor distance: 9.5993108860e-01.
   Bad match for point 866.	Nearest donor distance: 9.5993108860e-01.
   Bad match for point 867.	Nearest donor distance: 9.5993108860e-01.
   Bad match for point 868.	Nearest donor distance: 9.5993108860e-01.
   Bad match for point 869.	Nearest donor distance: 9.5993108860e-01.
   Bad match for point 870.	Nearest donor distance: 9.5993108860e-01.
   Bad match for point 871.	Nearest donor distance: 9.5993108860e-01.
   Bad match for point 872.	Nearest donor distance: 9.5993108860e-01.
   Bad match for point 873.	Nearest donor distance: 9.5993108860e-01.
   Bad match for point 874.	Nearest donor distance: 9.5993108860e-01.
   Bad match for point 875.	Nearest donor distance: 9.5993108860e-01.
   Bad match for point 876.	Nearest donor distance: 9.5993108860e-01.
   Bad match for point 877.	Nearest donor distance: 9.5993108860e-01.
   Bad match for point 878.	Nearest donor distance: 9.5993108860e-01.
   Bad match for point 879.	Nearest donor distance: 9.5993108860e-01.
   Bad match for point 880.	Nearest donor distance: 9.5993108860e-01.
   Bad match for point 881.	Nearest donor distance: 9.5993108860e-01.
   Bad match for point 882.	Nearest donor distance: 9.5993108860e-01.
   Bad match for point 883.	Nearest donor distance: 9.5993108860e-01.
   Bad match for point 884.	Nearest donor distance: 9.5993108860e-01.
   Bad match for point 885.	Nearest donor distance: 9.5993108860e-01.
   Bad match for point 886.	Nearest donor distance: 9.5993108860e-01.
   Bad match for point 887.	Nearest donor distance: 9.5993108860e-01.
   Bad match for point 888.	Nearest donor distance: 9.5993108860e-01.
   Bad match for point 889.	Nearest donor distance: 9.5993108860e-01.
   Bad match for point 890.	Nearest donor distance: 9.5993108860e-01.
   Bad match for point 891.	Nearest donor distance: 9.5993108860e-01.
   Bad match for point 892.	Nearest donor distance: 9.5993108860e-01.
   Bad match for point 893.	Nearest donor distance: 9.5993108860e-01.
   Bad match for point 894.	Nearest donor distance: 9.5993108860e-01.
   Bad match for point 895.	Nearest donor distance: 9.5993108860e-01.
   Bad match for point 896.	Nearest donor distance: 9.5993108860e-01.
   Bad match for point 897.	Nearest donor distance: 9.5993108860e-01.
   Bad match for point 898.	Nearest donor distance: 9.5993108860e-01.
   Bad match for point 899.	Nearest donor distance: 9.5993108860e-01.
   Bad match for point 900.	Nearest donor distance: 9.5993108860e-01.
   Bad match for point 901.	Nearest donor distance: 9.5993108860e-01.
   Bad match for point 902.	Nearest donor distance: 9.5993108860e-01.
   Bad match for point 903.	Nearest donor distance: 9.5993108860e-01.
   Bad match for point 904.	Nearest donor distance: 9.5993108860e-01.
   Bad match for point 905.	Nearest donor distance: 9.5993108860e-01.
   Bad match for point 906.	Nearest donor distance: 9.5993108860e-01.
   Bad match for point 907.	Nearest donor distance: 9.5993108860e-01.
   Bad match for point 908.	Nearest donor distance: 9.5993108860e-01.
   Bad match for point 909.	Nearest donor distance: 9.5993108860e-01.
   Bad match for point 910.	Nearest donor distance: 9.5993108860e-01.
   Bad match for point 911.	Nearest donor distance: 9.5993108860e-01.
   Bad match for point 912.	Nearest donor distance: 9.5993108860e-01.
   Bad match for point 913.	Nearest donor distance: 9.5993108860e-01.
   Bad match for point 914.	Nearest donor distance: 9.5993108860e-01.
   Bad match for point 915.	Nearest donor distance: 9.5993108860e-01.
   Bad match for point 916.	Nearest donor distance: 9.5993108860e-01.
   Bad match for point 917.	Nearest donor distance: 9.5993108860e-01.
   Bad match for point 918.	Nearest donor distance: 9.5993108860e-01.
   Bad match for point 919.	Nearest donor distance: 9.5993108860e-01.
   Bad match for point 920.	Nearest donor distance: 9.5993108860e-01.
   Bad match for point 921.	Nearest donor distance: 9.5993108860e-01.
   Bad match for point 200.	Nearest donor distance: 9.5993108860e-01. Matched 682 points with a max distance of: 0.0000000000e+00.


 !!! Warning !!!
Bad matches found. Computation will continue, but be cautious.
Computing wall distances.

-------------------- Solver Preprocessing ( Zone 0 ) --------------------
Viscous flow: Computing pressure using the ideal gas law
based on the free-stream temperature and a density computed
from the Reynolds number.
Force coefficients computed using free-stream values.

-- Models:
+------------------------------------------------------------------------------+
|          Viscosity Model|        Conductivity Model|              Fluid Model|
+------------------------------------------------------------------------------+
|               SUTHERLAND|          CONSTANT_PRANDTL|             STANDARD_AIR|
+------------------------------------------------------------------------------+
-- Fluid properties:
+------------------------------------------------------------------------------+
|                  Name|    Dim. value|    Ref. value|      Unit|Non-dim. value|
+------------------------------------------------------------------------------+
|        Ref. Viscosity|     3.737e-07|             1|lbf.s/ft^2|     3.737e-07|
|      Sutherland Temp.|        518.67|             1|         R|        518.67|
|     Sutherland Const.|        198.72|             1|         R|        198.72|
+------------------------------------------------------------------------------+
|        Prandtl (Lam.)|             -|             -|         -|          0.72|
|       Prandtl (Turb.)|             -|             -|         -|           0.9|
+------------------------------------------------------------------------------+
|          Gas Constant|       1716.49|             1|lbf.ft/slug.R|       1716.49|
|      Spec. Heat Ratio|             -|             -|         -|           1.4|
+------------------------------------------------------------------------------+
-- Initial and free-stream conditions:
+------------------------------------------------------------------------------+
|                  Name|    Dim. value|    Ref. value|      Unit|Non-dim. value|
+------------------------------------------------------------------------------+
|       Static Pressure|       2116.19|             1|       psf|       2116.19|
|               Density|   0.000742687|             1| slug/ft^3|   0.000742687|
|           Temperature|          1660|             1|         R|          1660|
|          Total Energy|   7.30294e+06|             1|  ft^2/s^2|   7.30294e+06|
|            Velocity-X|       599.184|             1|      ft/s|       599.184|
|            Velocity-Y|             0|             1|      ft/s|             0|
|    Velocity Magnitude|       599.184|             1|      ft/s|       599.184|
+------------------------------------------------------------------------------+
|             Viscosity|   8.25829e-07|             1|lbf.s/ft^2|   8.25829e-07|
|          Conductivity|             -|             1|lbf/ft.s.R|             -|
+------------------------------------------------------------------------------+
|           Mach Number|             -|             -|         -|           0.3|
|       Reynolds Number|             -|             -|         -|         89810|
+------------------------------------------------------------------------------+
Initialize Jacobian structure (Navier-Stokes). MG level: 0.

------------------- Numerics Preprocessing ( Zone 0 ) -------------------

----------------- Integration Preprocessing ( Zone 0 ) ------------------

------------------- Iteration Preprocessing ( Zone 0 ) ------------------
Euler/Navier-Stokes/RANS fluid iteration.

------------------------------ Begin Solver -----------------------------

Simulation Run using the Single-zone Driver
WARNING: SU2 was not compiled for an AVX-capable architecture. Performance could be better,
         see https://su2code.github.io/docs_v7/Build-SU2-Linux-MacOS/#compiler-optimizations
+-----------------------------------------------------------------------------+
|  Inner_Iter|   Time(sec)|    rms[Rho]|   rms[RhoU]|   rms[RhoV]|   rms[RhoE]|
+-----------------------------------------------------------------------------+
|           0|  7.4000e-02|   -4.946262|   -5.516248|  -15.309331|    2.060303|
|           1|  6.0500e-02|   -5.094077|   -1.903687|   -2.011337|    1.912359|
|           2|  5.5333e-02|   -5.134228|   -1.943486|   -2.066750|    1.870844|
|           3|  5.2250e-02|   -5.174565|   -1.983268|   -2.114152|    1.829989|
|           4|  5.0000e-02|   -5.213974|   -2.021618|   -2.141915|    1.790422|
|           5|  4.9500e-02|   -5.254046|   -2.059538|   -2.152996|    1.750490|
|           6|  5.1000e-02|   -5.292185|   -2.098729|   -2.154185|    1.713164|
|           7|  5.1750e-02|   -5.326260|   -2.138836|   -2.151713|    1.680335|
|           8|  5.2222e-02|   -5.348770|   -2.177803|   -2.150362|    1.658446|
|           9|  5.2700e-02|   -5.372483|   -2.211069|   -2.153179|    1.635038|
|          10|  5.3909e-02|   -5.393275|   -2.244122|   -2.162099|    1.614194|
|          11|  5.5750e-02|   -5.414529|   -2.281618|   -2.171657|    1.592770|
|          12|  5.7769e-02|   -5.432694|   -2.316016|   -2.180303|    1.574388|
|          13|  6.0071e-02|   -5.446067|   -2.341034|   -2.189768|    1.560806|
|          14|  6.2333e-02|   -5.460265|   -2.362143|   -2.200931|    1.546059|
|          15|  6.4687e-02|   -5.482078|   -2.384612|   -2.219855|    1.523420|
|          16|  6.7647e-02|   -5.520921|   -2.413840|   -2.257950|    1.483636|
|          17|  7.0778e-02|   -5.576734|   -2.447975|   -2.316053|    1.427544|
|          18|  7.4474e-02|   -5.631620|   -2.478234|   -2.372957|    1.373447|
|          19|  7.8550e-02|   -5.660843|   -2.494363|   -2.397268|    1.345302|
|          20|  8.3905e-02|   -5.667022|   -2.485755|   -2.381675|    1.339222|
|          21|  8.8773e-02|   -5.656717|   -2.450469|   -2.315480|    1.348794|
|          22|  9.3565e-02|   -5.596509|   -2.403448|   -2.192955|    1.407701|
|          23|  9.8083e-02|   -5.476349|   -2.372626|   -2.089026|    1.526868|
|          24|  1.0220e-01|   -5.413914|   -2.388998|   -2.091543|    1.588302|
|          25|  1.0704e-01|   -5.447654|   -2.449232|   -2.202205|    1.552117|
|          26|  1.1048e-01|   -5.520823|   -2.506241|   -2.352980|    1.475624|
|          27|  1.1382e-01|   -5.558437|   -2.516328|   -2.437414|    1.438299|
|          28|  1.1734e-01|   -5.559239|   -2.504484|   -2.448408|    1.439675|
|          29|  1.2043e-01|   -5.559736|   -2.500516|   -2.450084|    1.440688|
|          30|  1.2355e-01|   -5.575973|   -2.505445|   -2.443799|    1.424941|
|          31|  1.2634e-01|   -5.610465|   -2.516551|   -2.451605|    1.390383|
|          32|  1.2858e-01|   -5.643397|   -2.524751|   -2.465386|    1.357590|
|          33|  1.3091e-01|   -5.666861|   -2.533723|   -2.473595|    1.334473|
|          34|  1.3340e-01|   -5.679614|   -2.544302|   -2.475216|    1.321956|
|          35|  1.3564e-01|   -5.687386|   -2.557953|   -2.472301|    1.314282|
|          36|  1.3773e-01|   -5.695524|   -2.570362|   -2.467816|    1.306452|
|          37|  1.3992e-01|   -5.707381|   -2.582922|   -2.469860|    1.294625|
|          38|  1.4185e-01|   -5.722608|   -2.595467|   -2.479726|    1.279185|
|          39|  1.4370e-01|   -5.738097|   -2.606251|   -2.496990|    1.263485|
|          40|  1.4551e-01|   -5.748147|   -2.615236|   -2.515868|    1.253124|
|          41|  1.4719e-01|   -5.758454|   -2.623531|   -2.535166|    1.242240|
|          42|  1.4884e-01|   -5.767185|   -2.630853|   -2.549089|    1.233041|
|          43|  1.5061e-01|   -5.775203|   -2.636647|   -2.555376|    1.224753|
|          44|  1.5207e-01|   -5.783514|   -2.640924|   -2.555490|    1.216465|
|          45|  1.5352e-01|   -5.795153|   -2.644970|   -2.552025|    1.204744|
|          46|  1.5466e-01|   -5.806162|   -2.645138|   -2.548033|    1.193982|
|          47|  1.5583e-01|   -5.817782|   -2.642786|   -2.546760|    1.182887|
|          48|  1.5694e-01|   -5.831012|   -2.636969|   -2.549142|    1.170595|
|          49|  1.5824e-01|   -5.844740|   -2.629948|   -2.556446|    1.158144|
|          50|  1.5916e-01|   -5.859267|   -2.622808|   -2.568124|    1.145274|
|          51|  1.5983e-01|   -5.868033|   -2.616622|   -2.582638|    1.138695|
|          52|  1.6062e-01|   -5.871517|   -2.615486|   -2.598003|    1.137405|
|          53|  1.6157e-01|   -5.868837|   -2.621740|   -2.610635|    1.141642|
|          54|  1.6189e-01|   -5.862650|   -2.634017|   -2.620404|    1.148625|
|          55|  1.6230e-01|   -5.854781|   -2.651867|   -2.624636|    1.156460|
|          56|  1.6253e-01|   -5.849317|   -2.673055|   -2.625314|    1.161391|
|          57|  1.6279e-01|   -5.846342|   -2.690957|   -2.623642|    1.163775|
|          58|  1.6315e-01|   -5.846852|   -2.702443|   -2.622055|    1.162672|
|          59|  1.6352e-01|   -5.854323|   -2.707065|   -2.622398|    1.154882|
|          60|  1.6384e-01|   -5.865714|   -2.703050|   -2.622894|    1.143647|
|          61|  1.6434e-01|   -5.882104|   -2.697218|   -2.626799|    1.127739|
|          62|  1.6470e-01|   -5.904651|   -2.689370|   -2.634671|    1.106118|
|          63|  1.6505e-01|   -5.931226|   -2.682833|   -2.643867|    1.080739|
|          64|  1.6537e-01|   -5.960467|   -2.679311|   -2.653990|    1.052925|
|          65|  1.6564e-01|   -5.990947|   -2.679216|   -2.665539|    1.024024|
|          66|  1.6613e-01|   -6.021236|   -2.682180|   -2.676661|    0.995011|
|          67|  1.6653e-01|   -6.047114|   -2.686821|   -2.686040|    0.970332|
|          68|  1.6712e-01|   -6.063917|   -2.693584|   -2.691144|    0.954217|
|          69|  1.6750e-01|   -6.068259|   -2.703137|   -2.691505|    0.949585|
|          70|  1.6800e-01|   -6.066191|   -2.714608|   -2.690355|    0.951107|
|          71|  1.6837e-01|   -6.060347|   -2.728310|   -2.688080|    0.956241|
|          72|  1.6870e-01|   -6.054195|   -2.743303|   -2.684944|    0.961870|
|          73|  1.6918e-01|   -6.049551|   -2.758783|   -2.683319|    0.965956|
|          74|  1.6992e-01|   -6.047915|   -2.773217|   -2.684460|    0.967263|
|          75|  1.7055e-01|   -6.048315|   -2.782763|   -2.689670|    0.967002|
|          76|  1.7103e-01|   -6.052873|   -2.793315|   -2.694646|    0.962864|
|          77|  1.7142e-01|   -6.056414|   -2.803209|   -2.698516|    0.959497|
|          78|  1.7191e-01|   -6.062168|   -2.812767|   -2.703573|    0.953861|
|          79|  1.7216e-01|   -6.070476|   -2.823347|   -2.708803|    0.945613|
|          80|  1.7252e-01|   -6.079653|   -2.832948|   -2.713380|    0.936282|
|          81|  1.7295e-01|   -6.087462|   -2.841596|   -2.716390|    0.927923|
|          82|  1.7322e-01|   -6.095224|   -2.848787|   -2.718530|    0.919549|
|          83|  1.7363e-01|   -6.106073|   -2.855165|   -2.720408|    0.908122|
|          84|  1.7405e-01|   -6.118039|   -2.860276|   -2.721514|    0.895651|
|          85|  1.7420e-01|   -6.126541|   -2.862877|   -2.724105|    0.886851|
|          86|  1.7431e-01|   -6.138671|   -2.868547|   -2.728679|    0.874519|
|          87|  1.7450e-01|   -6.151198|   -2.875002|   -2.733594|    0.861680|
|          88|  1.7462e-01|   -6.160099|   -2.882649|   -2.738858|    0.852538|
|          89|  1.7477e-01|   -6.167120|   -2.890242|   -2.743936|    0.845595|
|          90|  1.7497e-01|   -6.171877|   -2.899943|   -2.747964|    0.840960|
|          91|  1.7514e-01|   -6.173848|   -2.909862|   -2.750853|    0.839154|
|          92|  1.7534e-01|   -6.173355|   -2.919001|   -2.752296|    0.840036|
|          93|  1.7559e-01|   -6.170707|   -2.928259|   -2.752471|    0.843069|
|          94|  1.7597e-01|   -6.164961|   -2.935706|   -2.751326|    0.849384|
|          95|  1.7605e-01|   -6.157601|   -2.941090|   -2.749684|    0.857275|
|          96|  1.7614e-01|   -6.150502|   -2.945048|   -2.748135|    0.864958|
|          97|  1.7617e-01|   -6.143107|   -2.947119|   -2.747509|    0.872809|
|          98|  1.7618e-01|   -6.136627|   -2.947370|   -2.748204|    0.879736|
|          99|  1.7623e-01|   -6.132534|   -2.947335|   -2.749503|    0.884095|
|         100|  1.7628e-01|   -6.129926|   -2.946692|   -2.751128|    0.886916|
|         101|  1.7630e-01|   -6.128586|   -2.945049|   -2.753499|    0.888410|
|         102|  1.7651e-01|   -6.129422|   -2.943643|   -2.755960|    0.887751|
|         103|  1.7650e-01|   -6.133003|   -2.943180|   -2.758226|    0.884255|
|         104|  1.7653e-01|   -6.137511|   -2.942518|   -2.759748|    0.879730|
|         105|  1.7658e-01|   -6.143854|   -2.942032|   -2.761313|    0.873414|
|         106|  1.7660e-01|   -6.152731|   -2.942463|   -2.762411|    0.864629|
|         107|  1.7661e-01|   -6.163710|   -2.943174|   -2.763313|    0.853778|
|         108|  1.7671e-01|   -6.175427|   -2.945016|   -2.764266|    0.842186|
|         109|  1.7674e-01|   -6.188701|   -2.947262|   -2.765525|    0.829042|
|         110|  1.7701e-01|   -6.203767|   -2.950043|   -2.767142|    0.814207|
|         111|  1.7701e-01|   -6.221173|   -2.953610|   -2.768843|    0.797007|
|         112|  1.7710e-01|   -6.236263|   -2.957588|   -2.769937|    0.781964|
|         113|  1.7720e-01|   -6.250957|   -2.961719|   -2.770842|    0.767251|
|         114|  1.7730e-01|   -6.263281|   -2.967036|   -2.771475|    0.754573|
|         115|  1.7740e-01|   -6.270951|   -2.972988|   -2.771964|    0.746283|
|         116|  1.7755e-01|   -6.274062|   -2.980409|   -2.771534|    0.742223|
|         117|  1.7760e-01|   -6.272203|   -2.987024|   -2.770335|    0.743127|
|         118|  1.7773e-01|   -6.264761|   -2.994992|   -2.768997|    0.749403|
|         119|  1.7782e-01|   -6.253056|   -3.003664|   -2.767532|    0.759843|
|         120|  1.7797e-01|   -6.238131|   -3.012841|   -2.765793|    0.773927|
|         121|  1.7802e-01|   -6.223487|   -3.022526|   -2.763616|    0.787921|
|         122|  1.7818e-01|   -6.209025|   -3.033662|   -2.761559|    0.801919|
|         123|  1.7835e-01|   -6.195220|   -3.044628|   -2.760620|    0.815369|
|         124|  1.7836e-01|   -6.185009|   -3.054725|   -2.760120|    0.825602|
|         125|  1.7845e-01|   -6.176722|   -3.062859|   -2.759240|    0.833944|
|         126|  1.7843e-01|   -6.171673|   -3.069562|   -2.758412|    0.839188|
|         127|  1.7851e-01|   -6.168581|   -3.074653|   -2.758206|    0.842457|
|         128|  1.7846e-01|   -6.170235|   -3.080141|   -2.758215|    0.841081|
|         129|  1.7845e-01|   -6.173547|   -3.082717|   -2.758503|    0.837921|
|         130|  1.7848e-01|   -6.179494|   -3.082493|   -2.759772|    0.832249|
|         131|  1.7848e-01|   -6.187775|   -3.081479|   -2.761354|    0.824086|
|         132|  1.7856e-01|   -6.199058|   -3.080961|   -2.762708|    0.812934|
|         133|  1.7855e-01|   -6.210897|   -3.081743|   -2.763949|    0.801095|
|         134|  1.7859e-01|   -6.223693|   -3.080705|   -2.765538|    0.788338|
|         135|  1.7862e-01|   -6.235976|   -3.079897|   -2.767269|    0.776072|
|         136|  1.7875e-01|   -6.246692|   -3.077569|   -2.769771|    0.765336|
|         137|  1.7885e-01|   -6.258718|   -3.078523|   -2.772486|    0.752953|
|         138|  1.7888e-01|   -6.264949|   -3.080235|   -2.774172|    0.746461|
|         139|  1.7899e-01|   -6.269096|   -3.082262|   -2.775592|    0.741823|
|         140|  1.7911e-01|   -6.271834|   -3.085144|   -2.777611|    0.738749|
|         141|  1.7930e-01|   -6.269360|   -3.089065|   -2.779462|    0.740679|
|         142|  1.7955e-01|   -6.268099|   -3.097938|   -2.780662|    0.741249|
|         143|  1.7964e-01|   -6.263792|   -3.107258|   -2.781766|    0.744856|
|         144|  1.7981e-01|   -6.260060|   -3.115357|   -2.783571|    0.748036|
|         145|  1.7989e-01|   -6.255037|   -3.125143|   -2.784791|    0.752317|
|         146|  1.7991e-01|   -6.250808|   -3.135315|   -2.785529|    0.755925|
|         147|  1.7998e-01|   -6.246048|   -3.145139|   -2.786228|    0.760173|
|         148|  1.8016e-01|   -6.244072|   -3.155222|   -2.787421|    0.761667|
|         149|  1.8019e-01|   -6.243768|   -3.166070|   -2.788882|    0.761267|
|         150|  1.8023e-01|   -6.246406|   -3.179937|   -2.790385|    0.757776|
|         151|  1.8028e-01|   -6.248665|   -3.192500|   -2.792041|    0.754493|
|         152|  1.8037e-01|   -6.253323|   -3.205087|   -2.793741|    0.749074|
|         153|  1.8043e-01|   -6.257857|   -3.218717|   -2.795338|    0.743490|
|         154|  1.8041e-01|   -6.263707|   -3.227954|   -2.797135|    0.736890|
|         155|  1.8046e-01|   -6.268544|   -3.235071|   -2.798631|    0.731436|
|         156|  1.8046e-01|   -6.273150|   -3.243486|   -2.800023|    0.726386|
|         157|  1.8060e-01|   -6.277985|   -3.251010|   -2.801178|    0.721073|
|         158|  1.8058e-01|   -6.282258|   -3.258392|   -2.802012|    0.716528|
|         159|  1.8063e-01|   -6.285611|   -3.264084|   -2.802306|    0.713017|
|         160|  1.8081e-01|   -6.286821|   -3.268265|   -2.802524|    0.711966|
|         161|  1.8098e-01|   -6.288274|   -3.273065|   -2.802861|    0.710609|
|         162|  1.8102e-01|   -6.289319|   -3.276136|   -2.802957|    0.709792|
|         163|  1.8107e-01|   -6.289571|   -3.277355|   -2.802832|    0.709811|
|         164|  1.8113e-01|   -6.289517|   -3.276804|   -2.802823|    0.710396|
|         165|  1.8119e-01|   -6.290354|   -3.276510|   -2.802502|    0.709893|
|         166|  1.8120e-01|   -6.291168|   -3.276811|   -2.802371|    0.709545|
|         167|  1.8128e-01|   -6.292613|   -3.276283|   -2.802443|    0.708376|
|         168|  1.8137e-01|   -6.293648|   -3.274540|   -2.802404|    0.707825|
|         169|  1.8141e-01|   -6.293197|   -3.272235|   -2.802400|    0.708732|
|         170|  1.8148e-01|   -6.293425|   -3.270163|   -2.802736|    0.708975|
|         171|  1.8158e-01|   -6.293416|   -3.267228|   -2.803132|    0.709296|
|         172|  1.8168e-01|   -6.293561|   -3.264335|   -2.803539|    0.709554|
|         173|  1.8164e-01|   -6.293021|   -3.261361|   -2.803877|    0.710331|
|         174|  1.8166e-01|   -6.291868|   -3.258797|   -2.804430|    0.711816|
|         175|  1.8173e-01|   -6.291957|   -3.257226|   -2.805202|    0.711942|
|         176|  1.8175e-01|   -6.291961|   -3.256337|   -2.805997|    0.712240|
|         177|  1.8179e-01|   -6.292295|   -3.256839|   -2.807059|    0.712060|
|         178|  1.8188e-01|   -6.292248|   -3.257296|   -2.808499|    0.712416|
|         179|  1.8203e-01|   -6.294020|   -3.259689|   -2.810160|    0.710789|
|         180|  1.8209e-01|   -6.295321|   -3.262459|   -2.811713|    0.709649|
|         181|  1.8209e-01|   -6.296699|   -3.264871|   -2.813466|    0.708216|
|         182|  1.8211e-01|   -6.298983|   -3.268183|   -2.815446|    0.706072|
|         183|  1.8217e-01|   -6.301870|   -3.272580|   -2.817818|    0.703206|
|         184|  1.8218e-01|   -6.305450|   -3.277647|   -2.820496|    0.699638|
|         185|  1.8219e-01|   -6.308587|   -3.281608|   -2.823570|    0.696456|
|         186|  1.8226e-01|   -6.312803|   -3.285620|   -2.827079|    0.692342|
|         187|  1.8239e-01|   -6.316874|   -3.288293|   -2.831066|    0.688360|
|         188|  1.8241e-01|   -6.321543|   -3.293128|   -2.835406|    0.683815|
|         189|  1.8250e-01|   -6.325717|   -3.298409|   -2.840231|    0.679551|
|         190|  1.8251e-01|   -6.330589|   -3.303914|   -2.845682|    0.674621|
|         191|  1.8252e-01|   -6.335730|   -3.308830|   -2.852001|    0.669297|
|         192|  1.8254e-01|   -6.341618|   -3.313907|   -2.858612|    0.663433|
|         193|  1.8259e-01|   -6.348533|   -3.320313|   -2.865555|    0.656514|
|         194|  1.8269e-01|   -6.355503|   -3.327220|   -2.873762|    0.649520|
|         195|  1.8275e-01|   -6.362695|   -3.332069|   -2.882907|    0.642171|
|         196|  1.8279e-01|   -6.369971|   -3.338460|   -2.892968|    0.634911|
|         197|  1.8292e-01|   -6.378866|   -3.344787|   -2.904001|    0.626007|
|         198|  1.8308e-01|   -6.387098|   -3.350666|   -2.916018|    0.618025|
|         199|  1.8326e-01|   -6.399202|   -3.356687|   -2.929114|    0.605901|
|         200|  1.8339e-01|   -6.408756|   -3.362748|   -2.942675|    0.596393|
|         201|  1.8343e-01|   -6.419221|   -3.370001|   -2.957530|    0.585801|
|         202|  1.8353e-01|   -6.432309|   -3.376724|   -2.974246|    0.572888|
|         203|  1.8362e-01|   -6.444065|   -3.383758|   -2.992129|    0.561120|
|         204|  1.8370e-01|   -6.457402|   -3.392038|   -3.011663|    0.547920|
|         205|  1.8381e-01|   -6.469255|   -3.398439|   -3.032228|    0.536195|
|         206|  1.8387e-01|   -6.486154|   -3.408013|   -3.054194|    0.519322|
|         207|  1.8397e-01|   -6.501499|   -3.417034|   -3.076963|    0.503717|
|         208|  1.8416e-01|   -6.518322|   -3.427702|   -3.101445|    0.486528|
|         209|  1.8436e-01|   -6.536128|   -3.437821|   -3.126972|    0.467962|
|         210|  1.8446e-01|   -6.555581|   -3.445702|   -3.153412|    0.448106|
|         211|  1.8452e-01|   -6.574646|   -3.450683|   -3.180869|    0.428270|
|         212|  1.8462e-01|   -6.595935|   -3.455481|   -3.209332|    0.406488|
|         213|  1.8474e-01|   -6.617365|   -3.458841|   -3.238076|    0.383988|
|         214|  1.8484e-01|   -6.640040|   -3.461106|   -3.267122|    0.360611|
|         215|  1.8495e-01|   -6.662810|   -3.461410|   -3.295418|    0.336771|
|         216|  1.8505e-01|   -6.684960|   -3.462164|   -3.322974|    0.314182|
|         217|  1.8518e-01|   -6.706398|   -3.461926|   -3.349631|    0.291637|
|         218|  1.8533e-01|   -6.728261|   -3.461872|   -3.375623|    0.269338|
|         219|  1.8554e-01|   -6.748691|   -3.460850|   -3.399903|    0.247770|
|         220|  1.8567e-01|   -6.768631|   -3.460592|   -3.421745|    0.227924|
|         221|  1.8576e-01|   -6.784492|   -3.460259|   -3.440773|    0.211649|
|         222|  1.8597e-01|   -6.800842|   -3.460687|   -3.457559|    0.196034|
|         223|  1.8607e-01|   -6.812872|   -3.460530|   -3.471317|    0.184103|
|         224|  1.8625e-01|   -6.822323|   -3.462194|   -3.483068|    0.176256|
|         225|  1.8637e-01|   -6.825232|   -3.463988|   -3.492559|    0.174066|
|         226|  1.8646e-01|   -6.827129|   -3.466242|   -3.500847|    0.174212|
|         227|  1.8655e-01|   -6.824602|   -3.468224|   -3.506387|    0.177827|
|         228|  1.8664e-01|   -6.818522|   -3.472008|   -3.510085|    0.186238|
|         229|  1.8673e-01|   -6.806441|   -3.475882|   -3.511765|    0.199366|
|         230|  1.8685e-01|   -6.795479|   -3.480728|   -3.512987|    0.212317|
|         231|  1.8693e-01|   -6.783041|   -3.485491|   -3.512994|    0.225498|
|         232|  1.8706e-01|   -6.769184|   -3.492318|   -3.511708|    0.240840|
|         233|  1.8711e-01|   -6.752845|   -3.499362|   -3.509415|    0.257556|
|         234|  1.8717e-01|   -6.739314|   -3.507131|   -3.507556|    0.272156|
|         235|  1.8722e-01|   -6.727358|   -3.514868|   -3.505919|    0.284223|
|         236|  1.8729e-01|   -6.716737|   -3.524644|   -3.503690|    0.295519|
|         237|  1.8735e-01|   -6.705803|   -3.534025|   -3.501348|    0.306346|
|         238|  1.8740e-01|   -6.698905|   -3.543438|   -3.500472|    0.313770|
|         239|  1.8746e-01|   -6.694553|   -3.551897|   -3.500788|    0.317957|
|         240|  1.8751e-01|   -6.692326|   -3.561459|   -3.500864|    0.320571|
|         241|  1.8756e-01|   -6.690472|   -3.569114|   -3.501611|    0.322177|
|         242|  1.8761e-01|   -6.692870|   -3.575813|   -3.503589|    0.320201|
|         243|  1.8769e-01|   -6.697496|   -3.579741|   -3.507160|    0.315410|
[...]
|        2574|  1.4806e-01|   -7.128966|   -3.993447|   -3.769048|   -0.114013|
|        2575|  1.4808e-01|   -7.133940|   -3.994699|   -3.771019|   -0.118495|
|        2576|  1.4809e-01|   -7.139376|   -3.992814|   -3.775455|   -0.124331|
|        2577|  1.4811e-01|   -7.144639|   -3.994066|   -3.778286|   -0.128799|
|        2578|  1.4813e-01|   -7.142023|   -3.993929|   -3.775050|   -0.126858|
|        2579|  1.4815e-01|   -7.138682|   -3.993709|   -3.772151|   -0.123153|
|        2580|  1.4816e-01|   -7.142317|   -3.991173|   -3.778400|   -0.127450|
|        2581|  1.4818e-01|   -7.142549|   -3.993212|   -3.776399|   -0.127081|
|        2582|  1.4817e-01|   -7.135102|   -3.992821|   -3.772362|   -0.120103|
|        2583|  1.4815e-01|   -7.198294|   -4.010420|   -3.826842|   -0.180634|
|        2584|  1.4812e-01|   -7.359950|   -4.044265|   -3.950782|   -0.344412|
|        2585|  1.4808e-01|   -7.534096|   -4.068075|   -4.070015|   -0.520493|
|        2586|  1.4804e-01|   -7.737966|   -4.080123|   -4.133659|   -0.734580|
|        2587|  1.4800e-01|   -7.816085|   -4.084364|   -4.151093|   -0.818271|
|        2588|  1.4796e-01|   -7.840796|   -4.086407|   -4.153559|   -0.844728|
|        2589|  1.4791e-01|   -7.849549|   -4.087179|   -4.154326|   -0.854152|
|        2590|  1.4787e-01|   -7.852620|   -4.087585|   -4.154655|   -0.857543|
|        2591|  1.4783e-01|   -7.854068|   -4.087790|   -4.154809|   -0.859162|
|        2592|  1.4779e-01|   -7.854775|   -4.087893|   -4.154884|   -0.859958|
|        2593|  1.4774e-01|   -7.855125|   -4.087945|   -4.154921|   -0.860352|
|        2594|  1.4770e-01|   -7.855362|   -4.087980|   -4.154946|   -0.860620|
|        2595|  1.4766e-01|   -7.855598|   -4.088015|   -4.154971|   -0.860886|
|        2596|  1.4762e-01|   -7.855832|   -4.088050|   -4.154996|   -0.861151|
|        2597|  1.4758e-01|   -7.856066|   -4.088085|   -4.155021|   -0.861415|
|        2598|  1.4753e-01|   -7.856298|   -4.088120|   -4.155045|   -0.861678|
|        2599|  1.4749e-01|   -7.856528|   -4.088155|   -4.155070|   -0.861940|
|        2600|  1.4745e-01|   -7.856758|   -4.088190|   -4.155094|   -0.862200|
|        2601|  1.4741e-01|   -7.856986|   -4.088225|   -4.155119|   -0.862460|
|        2602|  1.4737e-01|   -7.857213|   -4.088259|   -4.155143|   -0.862718|
|        2603|  1.4733e-01|   -7.857439|   -4.088294|   -4.155167|   -0.862975|
|        2604|  1.4728e-01|   -7.857664|   -4.088328|   -4.155191|   -0.863231|
|        2605|  1.4724e-01|   -7.857887|   -4.088363|   -4.155215|   -0.863486|
|        2606|  1.4720e-01|   -7.858110|   -4.088397|   -4.155239|   -0.863740|
|        2607|  1.4716e-01|   -7.858331|   -4.088432|   -4.155263|   -0.863993|
|        2608|  1.4712e-01|   -7.858551|   -4.088466|   -4.155287|   -0.864245|
|        2609|  1.4707e-01|   -7.858770|   -4.088500|   -4.155310|   -0.864496|
|        2610|  1.4703e-01|   -7.858988|   -4.088534|   -4.155334|   -0.864745|
|        2611|  1.4699e-01|   -7.859205|   -4.088568|   -4.155357|   -0.864994|
|        2612|  1.4695e-01|   -7.859421|   -4.088602|   -4.155380|   -0.865242|
|        2613|  1.4690e-01|   -7.859636|   -4.088636|   -4.155404|   -0.865489|
|        2614|  1.4686e-01|   -7.859851|   -4.088670|   -4.155427|   -0.865735|
|        2615|  1.4682e-01|   -7.860064|   -4.088704|   -4.155450|   -0.865980|
|        2616|  1.4678e-01|   -7.860276|   -4.088737|   -4.155472|   -0.866223|
|        2617|  1.4674e-01|   -7.860487|   -4.088771|   -4.155495|   -0.866466|
|        2618|  1.4669e-01|   -7.860697|   -4.088805|   -4.155518|   -0.866708|
|        2619|  1.4665e-01|   -7.860905|   -4.088838|   -4.155541|   -0.866948|
|        2620|  1.4661e-01|   -7.861113|   -4.088872|   -4.155563|   -0.867188|
|        2621|  1.4657e-01|   -7.861320|   -4.088905|   -4.155586|   -0.867426|
|        2622|  1.4653e-01|   -7.861525|   -4.088938|   -4.155608|   -0.867664|
|        2623|  1.4649e-01|   -7.861730|   -4.088971|   -4.155630|   -0.867901|
|        2624|  1.4645e-01|   -7.861933|   -4.089005|   -4.155652|   -0.868137|
|        2625|  1.4641e-01|   -7.862136|   -4.089038|   -4.155675|   -0.868371|
|        2626|  1.4637e-01|   -7.862338|   -4.089071|   -4.155697|   -0.868605|
|        2627|  1.4633e-01|   -7.862579|   -4.089110|   -4.155723|   -0.868885|
|        2628|  1.4629e-01|   -7.862866|   -4.089157|   -4.155755|   -0.869219|
|        2629|  1.4625e-01|   -7.863208|   -4.089214|   -4.155793|   -0.869618|
|        2630|  1.4621e-01|   -7.863615|   -4.089281|   -4.155838|   -0.870092|
|        2631|  1.4617e-01|   -7.864099|   -4.089361|   -4.155892|   -0.870658|
|        2632|  1.4612e-01|   -7.864671|   -4.089457|   -4.155956|   -0.871330|
|        2633|  1.4608e-01|   -7.865347|   -4.089571|   -4.156032|   -0.872127|
|        2634|  1.4604e-01|   -7.866146|   -4.089706|   -4.156123|   -0.873072|
|        2635|  1.4600e-01|   -7.867088|   -4.089866|   -4.156232|   -0.874188|
|        2636|  1.4596e-01|   -7.868194|   -4.090055|   -4.156360|   -0.875504|
|        2637|  1.4592e-01|   -7.869490|   -4.090278|   -4.156512|   -0.877051|
|        2638|  1.4588e-01|   -7.870999|   -4.090540|   -4.156692|   -0.878861|
|        2639|  1.4584e-01|   -7.872748|   -4.090847|   -4.156904|   -0.880970|
|        2640|  1.4580e-01|   -7.874758|   -4.091203|   -4.157154|   -0.883410|
|        2641|  1.4576e-01|   -7.877052|   -4.091616|   -4.157447|   -0.886215|
|        2642|  1.4572e-01|   -7.879650|   -4.092090|   -4.157789|   -0.889418|
|        2643|  1.4568e-01|   -7.882549|   -4.092633|   -4.158185|   -0.893025|
|        2644|  1.4564e-01|   -7.885797|   -4.093249|   -4.158643|   -0.897099|
|        2645|  1.4560e-01|   -7.889434|   -4.093943|   -4.159172|   -0.901696|
|        2646|  1.4556e-01|   -7.893570|   -4.094716|   -4.159772|   -0.906942|
|        2647|  1.4553e-01|   -7.898626|   -4.095606|   -4.160431|   -0.913350|
|        2648|  1.4549e-01|   -7.903732|   -4.096578|   -4.161140|   -0.919937|
|        2649|  1.4546e-01|   -7.908860|   -4.097663|   -4.161883|   -0.926679|
|        2650|  1.4542e-01|   -7.914059|   -4.098870|   -4.162625|   -0.933602|
|        2651|  1.4539e-01|   -7.919532|   -4.100230|   -4.163269|   -0.940969|
|        2652|  1.4535e-01|   -7.924750|   -4.101761|   -4.163748|   -0.948097|
|        2653|  1.4532e-01|   -7.930875|   -4.103488|   -4.163848|   -0.956663|
|        2654|  1.4529e-01|   -7.929912|   -4.105317|   -4.163429|   -0.956906|
|        2655|  1.4525e-01|   -7.935579|   -4.107536|   -4.162486|   -0.965015|
|        2656|  1.4522e-01|   -7.937273|   -4.109817|   -4.161053|   -0.968283|
|        2657|  1.4519e-01|   -7.920054|   -4.112302|   -4.157177|   -0.948700|
|        2658|  1.4517e-01|   -7.889755|   -4.114443|   -4.151374|   -0.914069|
|        2659|  1.4514e-01|   -7.809429|   -4.116566|   -4.137682|   -0.821829|
|        2660|  1.4511e-01|   -7.667148|   -4.117836|   -4.099724|   -0.666942|
|        2661|  1.4509e-01|   -7.557649|   -4.116068|   -4.064000|   -0.549976|
|        2662|  1.4506e-01|   -7.481931|   -4.112818|   -4.017993|   -0.471993|
|        2663|  1.4505e-01|   -7.432640|   -4.110779|   -3.991200|   -0.419065|
|        2664|  1.4503e-01|   -7.370890|   -4.103947|   -3.944880|   -0.357291|
|        2665|  1.4503e-01|   -7.335457|   -4.097941|   -3.921992|   -0.319269|
|        2666|  1.4502e-01|   -7.294848|   -4.085091|   -3.890134|   -0.279753|
|        2667|  1.4502e-01|   -7.264842|   -4.076680|   -3.866912|   -0.248164|
|        2668|  1.4503e-01|   -7.236973|   -4.063264|   -3.846045|   -0.221333|
|        2669|  1.4504e-01|   -7.192272|   -4.053728|   -3.810151|   -0.176803|
|        2670|  1.4506e-01|   -7.160390|   -4.036022|   -3.788435|   -0.146041|
|        2671|  1.4507e-01|   -7.142828|   -4.029653|   -3.771456|   -0.128227|
|        2672|  1.4508e-01|   -7.138367|   -4.021221|   -3.773462|   -0.124374|
|        2673|  1.4509e-01|   -7.144830|   -4.016608|   -3.774780|   -0.129833|
|        2674|  1.4511e-01|   -7.141795|   -4.014827|   -3.772637|   -0.127368|
|        2675|  1.4512e-01|   -7.146583|   -4.014960|   -3.774996|   -0.131139|
|        2676|  1.4514e-01|   -7.145802|   -4.013207|   -3.773107|   -0.130817|
|        2677|  1.4515e-01|   -7.142806|   -4.016130|   -3.770819|   -0.127191|
|        2678|  1.4517e-01|   -7.137998|   -4.018250|   -3.771384|   -0.123085|
|        2679|  1.4519e-01|   -7.136280|   -4.021784|   -3.768006|   -0.121039|
|        2680|  1.4520e-01|   -7.132106|   -4.021874|   -3.765897|   -0.117241|
|        2681|  1.4522e-01|   -7.139660|   -4.028191|   -3.771706|   -0.123980|
|        2682|  1.4523e-01|   -7.133893|   -4.029246|   -3.772101|   -0.119128|
|        2683|  1.4525e-01|   -7.134106|   -4.028905|   -3.773664|   -0.119072|
|        2684|  1.4527e-01|   -7.139578|   -4.023461|   -3.781497|   -0.125211|
|        2685|  1.4529e-01|   -7.144305|   -4.026642|   -3.783173|   -0.129044|
|        2686|  1.4531e-01|   -7.138996|   -4.026307|   -3.779216|   -0.124071|
|        2687|  1.4532e-01|   -7.142421|   -4.028972|   -3.780295|   -0.126697|
|        2688|  1.4534e-01|   -7.143677|   -4.027967|   -3.783456|   -0.128766|
|        2689|  1.4536e-01|   -7.147397|   -4.030067|   -3.783797|   -0.131841|
|        2690|  1.4537e-01|   -7.146294|   -4.028295|   -3.779609|   -0.131115|
|        2691|  1.4540e-01|   -7.143717|   -4.032975|   -3.775707|   -0.128121|
|        2692|  1.4541e-01|   -7.139032|   -4.033865|   -3.778086|   -0.124326|
|        2693|  1.4543e-01|   -7.141712|   -4.036280|   -3.779364|   -0.126521|
|        2694|  1.4545e-01|   -7.142775|   -4.037262|   -3.780356|   -0.127965|
|        2695|  1.4546e-01|   -7.146128|   -4.043906|   -3.782677|   -0.130407|
|        2696|  1.4548e-01|   -7.140824|   -4.047992|   -3.779750|   -0.125635|
|        2697|  1.4550e-01|   -7.142840|   -4.055127|   -3.781086|   -0.127049|
|        2698|  1.4551e-01|   -7.153677|   -4.056796|   -3.788373|   -0.138574|
|        2699|  1.4553e-01|   -7.146024|   -4.062606|   -3.780470|   -0.130930|
|        2700|  1.4555e-01|   -7.134668|   -4.062186|   -3.777859|   -0.119914|
|        2701|  1.4557e-01|   -7.141511|   -4.065986|   -3.780359|   -0.126003|
|        2702|  1.4559e-01|   -7.140689|   -4.066287|   -3.782934|   -0.125840|
|        2703|  1.4561e-01|   -7.146376|   -4.064816|   -3.788066|   -0.130787|
|        2704|  1.4563e-01|   -7.156770|   -4.058595|   -3.795052|   -0.141674|
|        2705|  1.4565e-01|   -7.156453|   -4.059080|   -3.791559|   -0.140702|
|        2706|  1.4566e-01|   -7.144992|   -4.055676|   -3.787372|   -0.129970|
|        2707|  1.4569e-01|   -7.153140|   -4.054104|   -3.791766|   -0.137080|
|        2708|  1.4571e-01|   -7.157471|   -4.052684|   -3.793085|   -0.142125|
|        2709|  1.4573e-01|   -7.148553|   -4.054472|   -3.783383|   -0.133075|
|        2710|  1.4576e-01|   -7.140380|   -4.050662|   -3.780640|   -0.125256|
|        2711|  1.4577e-01|   -7.146270|   -4.056655|   -3.780842|   -0.130329|
|        2712|  1.4580e-01|   -7.143735|   -4.060023|   -3.783398|   -0.128571|
|        2713|  1.4582e-01|   -7.147923|   -4.061792|   -3.787725|   -0.132167|
|        2714|  1.4583e-01|   -7.152507|   -4.061532|   -3.792577|   -0.137386|
|        2715|  1.4585e-01|   -7.152364|   -4.066645|   -3.793098|   -0.136581|
|        2716|  1.4587e-01|   -7.146975|   -4.067511|   -3.791200|   -0.131810|
|        2717|  1.4588e-01|   -7.148432|   -4.071012|   -3.790832|   -0.132619|
|        2718|  1.4591e-01|   -7.146736|   -4.069960|   -3.792919|   -0.131627|
|        2719|  1.4592e-01|   -7.151284|   -4.069264|   -3.794498|   -0.135408|
|        2720|  1.4594e-01|   -7.150720|   -4.064959|   -3.790945|   -0.135247|
|        2721|  1.4595e-01|   -7.150472|   -4.066062|   -3.789319|   -0.134479|
|        2722|  1.4597e-01|   -7.145994|   -4.061469|   -3.791066|   -0.130947|
|        2723|  1.4599e-01|   -7.147997|   -4.059414|   -3.790789|   -0.132649|
|        2724|  1.4600e-01|   -7.150609|   -4.052442|   -3.793055|   -0.135657|
|        2725|  1.4602e-01|   -7.153277|   -4.053842|   -3.793380|   -0.137531|
|        2726|  1.4604e-01|   -7.146382|   -4.052793|   -3.789040|   -0.131209|
|        2727|  1.4603e-01|   -7.143002|   -4.053555|   -3.786649|   -0.127394|
|        2728|  1.4601e-01|   -7.224827|   -4.070639|   -3.866256|   -0.209502|
|        2729|  1.4598e-01|   -7.395561|   -4.110879|   -3.995774|   -0.378334|
|        2730|  1.4594e-01|   -7.601690|   -4.139818|   -4.135899|   -0.590218|
|        2731|  1.4590e-01|   -7.763696|   -4.148409|   -4.195148|   -0.760041|
|        2732|  1.4587e-01|   -7.900757|   -4.153933|   -4.221658|   -0.904532|
|        2733|  1.4583e-01|   -7.919114|   -4.156049|   -4.224230|   -0.925179|
|        2734|  1.4579e-01|   -7.924774|   -4.157101|   -4.225010|   -0.931620|
|        2735|  1.4575e-01|   -7.927285|   -4.157623|   -4.225341|   -0.934519|
|        2736|  1.4571e-01|   -7.928488|   -4.157882|   -4.225497|   -0.935918|
|        2737|  1.4567e-01|   -7.929077|   -4.158011|   -4.225572|   -0.936606|
|        2738|  1.4563e-01|   -7.929370|   -4.158075|   -4.225610|   -0.936947|
|        2739|  1.4559e-01|   -7.929568|   -4.158119|   -4.225635|   -0.937179|
|        2740|  1.4555e-01|   -7.929765|   -4.158163|   -4.225660|   -0.937410|
|        2741|  1.4551e-01|   -7.929962|   -4.158206|   -4.225685|   -0.937640|
|        2742|  1.4547e-01|   -7.930157|   -4.158249|   -4.225710|   -0.937869|
|        2743|  1.4543e-01|   -7.930351|   -4.158292|   -4.225735|   -0.938097|
|        2744|  1.4539e-01|   -7.930545|   -4.158335|   -4.225760|   -0.938324|
|        2745|  1.4535e-01|   -7.930738|   -4.158378|   -4.225784|   -0.938550|
|        2746|  1.4532e-01|   -7.930929|   -4.158421|   -4.225809|   -0.938776|
|        2747|  1.4528e-01|   -7.931120|   -4.158464|   -4.225833|   -0.939000|
|        2748|  1.4524e-01|   -7.931310|   -4.158506|   -4.225857|   -0.939224|
|        2749|  1.4520e-01|   -7.931500|   -4.158548|   -4.225881|   -0.939446|
|        2750|  1.4516e-01|   -7.931688|   -4.158590|   -4.225905|   -0.939668|
+-----------------------------------------------------------------------+
|        File Writing Summary       |              Filename             |
+-----------------------------------------------------------------------+
|SU2 binary restart                 |entire_surface_data.dat            |
|Paraview                           |flow.vtu                           |
|CSV file                           |surface_flow_markers.csv           |
|SU2 ASCII restart                  |entire_surface_data.csv            |
|Paraview surface                   |surface_flow_markers.vtu           |
+-----------------------------------------------------------------------+
+-----------------------------------------------------------------------------+
|  Inner_Iter|   Time(sec)|    rms[Rho]|   rms[RhoU]|   rms[RhoV]|   rms[RhoE]|
+-----------------------------------------------------------------------------+
|        2751|  1.4529e-01|   -7.931876|   -4.158632|   -4.225929|   -0.939889|
|        2752|  1.4525e-01|   -7.932061|   -4.158674|   -4.225954|   -0.940107|
|        2753|  1.4521e-01|   -7.932246|   -4.158716|   -4.225979|   -0.940324|
|        2754|  1.4517e-01|   -7.932430|   -4.158757|   -4.226004|   -0.940541|
|        2755|  1.4513e-01|   -7.932614|   -4.158799|   -4.226029|   -0.940758|
|        2756|  1.4509e-01|   -7.932797|   -4.158840|   -4.226053|   -0.940975|
|        2757|  1.4505e-01|   -7.932979|   -4.158881|   -4.226077|   -0.941190|
|        2758|  1.4501e-01|   -7.933161|   -4.158922|   -4.226102|   -0.941405|
|        2759|  1.4497e-01|   -7.933342|   -4.158963|   -4.226126|   -0.941619|
|        2760|  1.4494e-01|   -7.933522|   -4.159004|   -4.226149|   -0.941833|
|        2761|  1.4490e-01|   -7.933702|   -4.159044|   -4.226173|   -0.942046|
|        2762|  1.4486e-01|   -7.933917|   -4.159093|   -4.226202|   -0.942301|
|        2763|  1.4482e-01|   -7.934174|   -4.159151|   -4.226235|   -0.942606|
|        2764|  1.4478e-01|   -7.934480|   -4.159220|   -4.226275|   -0.942970|
|        2765|  1.4474e-01|   -7.934846|   -4.159302|   -4.226323|   -0.943404|
|        2766|  1.4470e-01|   -7.935281|   -4.159400|   -4.226380|   -0.943922|
|        2767|  1.4467e-01|   -7.935795|   -4.159516|   -4.226448|   -0.944530|
|        2768|  1.4463e-01|   -7.936408|   -4.159654|   -4.226528|   -0.945257|
|        2769|  1.4459e-01|   -7.937138|   -4.159817|   -4.226622|   -0.946127|
|        2770|  1.4455e-01|   -7.938008|   -4.160010|   -4.226732|   -0.947165|
|        2771|  1.4451e-01|   -7.939043|   -4.160236|   -4.226861|   -0.948406|
|        2772|  1.4447e-01|   -7.940276|   -4.160501|   -4.227011|   -0.949889|
|        2773|  1.4443e-01|   -7.941744|   -4.160811|   -4.227185|   -0.951658|
|        2774|  1.4440e-01|   -7.943489|   -4.161170|   -4.227388|   -0.953767|
|        2775|  1.4436e-01|   -7.945556|   -4.161584|   -4.227620|   -0.956269|
|        2776|  1.4432e-01|   -7.947975|   -4.162060|   -4.227886|   -0.959208|
|        2777|  1.4429e-01|   -7.950694|   -4.162602|   -4.228195|   -0.962526|
|        2778|  1.4425e-01|   -7.953782|   -4.163219|   -4.228562|   -0.966324|
|        2779|  1.4421e-01|   -7.957354|   -4.163914|   -4.228994|   -0.970731|
|        2780|  1.4418e-01|   -7.961310|   -4.164692|   -4.229503|   -0.975657|
|        2781|  1.4414e-01|   -7.965754|   -4.165557|   -4.230084|   -0.981238|
|        2782|  1.4410e-01|   -7.970827|   -4.166519|   -4.230726|   -0.987672|
|        2783|  1.4407e-01|   -7.976711|   -4.167604|   -4.231409|   -0.995179|
|        2784|  1.4403e-01|   -7.982370|   -4.168818|   -4.232116|   -1.002603|
|        2785|  1.4400e-01|   -7.988371|   -4.170206|   -4.232806|   -1.010503|
|        2786|  1.4397e-01|   -7.993847|   -4.171788|   -4.233376|   -1.017981|
|        2787|  1.4393e-01|   -7.999143|   -4.173624|   -4.233676|   -1.025354|
|        2788|  1.4390e-01|   -8.003625|   -4.175701|   -4.233618|   -1.031884|

----------------------------- Solver Exit -------------------------------
All convergence criteria satisfied.
+-----------------------------------------------------------------------+
|      Convergence Field     |     Value    |   Criterion  |  Converged |
+-----------------------------------------------------------------------+
|                    rms[Rho]|      -8.00362|          < -8|         Yes|
+-----------------------------------------------------------------------+
-------------------------------------------------------------------------
+-----------------------------------------------------------------------+
|        File Writing Summary       |              Filename             |
+-----------------------------------------------------------------------+
|SU2 binary restart                 |entire_surface_data.dat            |
|Paraview                           |flow.vtu                           |
|CSV file                           |surface_flow_markers.csv           |
|SU2 ASCII restart                  |entire_surface_data.csv            |
|Paraview surface                   |surface_flow_markers.vtu           |
+-----------------------------------------------------------------------+

--------------------------- Finalizing Solver ---------------------------
Deleted CNumerics container.
Deleted CIntegration container.
Deleted CSolver container.
Deleted CIteration container.
Deleted CInterface container.
Deleted CGeometry container.
Deleted CFreeFormDefBox class.
Deleted CSurfaceMovement class.
Deleted CVolumetricMovement class.
Deleted CConfig container.
Deleted nInst container.
Deleted COutput class.
-------------------------------------------------------------------------

------------------------- Exit Success (SU2_CFD) ------------------------


Total elapsed: 0:06:42
